
Note: Compatibility modes selected: ps


Circuit: * tb02 - ldr divider + unity buffer

=============== TB02: LDR divider + buffer ===============
  Fixed leg R5 = 100k, LDR on the high side, Vdd = 3.3 V

Reducing trtol to 1 for xspice 'A' devices
Doing analysis at TEMP = 27.000000 and TNOM = 27.000000

Using SPARSE 1.3 as Direct Linear Solver

No. of Data Rows : 801
--- Divider output vs LDR resistance ---
v_1k                =  3.267327e+00
v_4k3               =  3.163947e+00
v_16k               =  2.844858e+00
v_23k               =  2.682975e+00
v_33k               =  2.481239e+00
v_100k              =  1.650000e+00
v_500k              =  5.499512e-01
v_1meg              =  2.999851e-01
  R_LDR = 1   k (approx 900 lux, very bright) -> V_BUF_IN = 3.26733 V
  R_LDR = 4.3 k (approx 100 lux, room light)  -> V_BUF_IN = 3.16395 V
  R_LDR = 16  k (10 lux, datasheet MIN)       -> V_BUF_IN = 2.84486 V
  R_LDR = 23  k (10 lux, geometric mean)      -> V_BUF_IN = 2.68297 V
  R_LDR = 33  k (10 lux, datasheet MAX)       -> V_BUF_IN = 2.48124 V
  R_LDR = 100 k (approx 1.5 lux, dusk)        -> V_BUF_IN = 1.65 V
  R_LDR = 500 k (dark, datasheet min dark R)  -> V_BUF_IN = 0.549951 V
  R_LDR = 1   M (fully dark)                  -> V_BUF_IN = 0.299985 V

--- Buffer fidelity (does U11 follow the divider?) ---
vb_23k              =  2.682250e+00
vb_1k               =  3.266554e+00
  At R=23k : V_BUF_IN = 2.68297 V , V_BUF_1_OUT = 2.68225 V , err = -0.725 mV
  At R=1k  : V_BUF_IN = 3.26733  V , V_BUF_1_OUT = 3.26655  V , err = -0.773 mV

--- Divider sensitivity dV/dlog10(R) ---
s_4k3               =  3.003643e-01
s_23k               =  1.155124e+00
s_100k              =  1.899675e+00
s_500k              =  1.055297e+00
  |dV/dlog10(R)| at R=4.3k (100 lux) = 0.300364  V/decade
  |dV/dlog10(R)| at R=23k  (10 lux)  = 1.15512  V/decade
  |dV/dlog10(R)| at R=100k (1.5 lux) = 1.89968 V/decade  <- peak (R=RFIX)
  |dV/dlog10(R)| at R=500k (dark)    = 1.0553 V/decade
  [theoretical peak with RFIX=100k: Vdd*ln(10)/4 = 1.899 V/decade]

--- Source impedance seen by the STM32 ADC (V_BUF_IN is wired to PA0) ---
z_23k               =  1.869835e+04
z_100k              =  5.000000e+04
z_500k              =  8.333419e+04
  Zth at R_LDR=23k  = 18698.3  Ohm
  Zth at R_LDR=100k = 50000 Ohm   <- worst case (R_LDR = RFIX)
  Zth at R_LDR=500k = 83334.2 Ohm
ngspice-45.2 done
