
Note: Compatibility modes selected: ps


Circuit: * tb05 - 4-input inverting summer (u2 unit a -> n1_sum), with real weight cells

=============== TB05: 4-input summer (U2A -> N1_SUM) ===============
  v1=v2=v3=1.0 V, Rin=100k x4, Rf=22k -> gain -0.22 per input

--- Per-input gain: sweep D1, hold D2=D3=Db=128 (all contribute 0) ---
Reducing trtol to 1 for xspice 'A' devices
Doing analysis at TEMP = 27.000000 and TNOM = 27.000000

Using SPARSE 1.3 as Direct Linear Solver

No. of Data Rows : 513
s_d0                =  1.428973e+00
s_d64               =  1.540914e+00
s_d128              =  1.648810e+00
s_d192              =  1.756705e+00
s_d256              =  1.868641e+00
  D1=0   (w=+1) -> N1_SUM = 1.42897   [ideal 1.430 = 1.65-0.22]
  D1=64  (w=+.5)-> N1_SUM = 1.54091  [ideal 1.540]
  D1=128 (w= 0) -> N1_SUM = 1.64881 [ideal 1.650]
  D1=192 (w=-.5)-> N1_SUM = 1.7567 [ideal 1.760]
  D1=256 (w=-1) -> N1_SUM = 1.86864 [ideal 1.870]
gmid                =  1.675595e-03
  dN_SUM/dD at D=128 = 0.00167559 V/tap  [ideal 2*0.22*v/256 = 1.719e-3]

--- Bias input: sweep Db, others at 128 ---
Reducing trtol to 1 for xspice 'A' devices
Doing analysis at TEMP = 27.000000 and TNOM = 27.000000

Using SPARSE 1.3 as Direct Linear Solver

No. of Data Rows : 513
b_d0                =  1.286081e+00
b_d128              =  1.648810e+00
b_d256              =  2.011533e+00
  Db=0   (W_bias=3.30V) -> N1_SUM = 1.28608   [ideal 1.650-0.22*1.65=1.287]
  Db=128 (W_bias=1.65V) -> N1_SUM = 1.64881 [ideal 1.650]
  Db=256 (W_bias=0.00V) -> N1_SUM = 2.01153 [ideal 1.650+0.22*1.65=2.013]
  NOTE bias polarity is also inverted: code 0 = +3.3V at the wiper.

--- Output saturation: how far can N1_SUM actually swing? ---
Reducing trtol to 1 for xspice 'A' devices
Doing analysis at TEMP = 27.000000 and TNOM = 27.000000

Using SPARSE 1.3 as Direct Linear Solver

No. of Data Rows : 1
  All weights +1, v=1.65, bias max -> N1_SUM = 0.197891 V
    [ideal 1.65 - 0.22*(1.65*3 + 1.65) = 0.198 V]
Reducing trtol to 1 for xspice 'A' devices
Doing analysis at TEMP = 27.000000 and TNOM = 27.000000

Using SPARSE 1.3 as Direct Linear Solver

No. of Data Rows : 1
  All weights -1, v=1.65, bias min -> N1_SUM = 3.0997 V
    [ideal 1.65 + 0.22*(1.65*3 + 1.65) = 3.102 V]

  >>> N1_SUM operating range is therefore roughly 0.20 V .. 3.10 V.
  >>> The LM339 IN+ common-mode limit at Vcc=3.3 is Vcc-1.5 = 1.80 V
  >>> (TI's own macromodel enforces Vcc-2.0 = 1.30 V). See TB06.
Reducing trtol to 1 for xspice 'A' devices
Doing analysis at TEMP = 27.000000 and TNOM = 27.000000

Using SPARSE 1.3 as Direct Linear Solver

No. of Data Rows : 1

--- Small-signal: noise gain and bandwidth at the summing node ---
Reducing trtol to 1 for xspice 'A' devices
Doing analysis at TEMP = 27.000000 and TNOM = 27.000000

Using SPARSE 1.3 as Direct Linear Solver

No. of Data Rows : 351
ng_10hz             =  -1.939301e+01
f3db                =  5.679336e+05
  Gain @ 10 Hz = -19.393 dB   [expect -19.2 dB = 0.22/2]
  f_3dB        = 567934 Hz      [noise gain 1.86 -> expect ~670 kHz]
  The LDR rolls off at 10-25 Hz, so this stage is ~4-5 decades faster
  than the signal. Bandwidth is not a risk; no peaking observed.

--- Output noise (thermal noise of the 100k summing network) ---
Reducing trtol to 1 for xspice 'A' devices
Doing analysis at TEMP = 27.000000 and TNOM = 27.000000

Using SPARSE 1.3 as Direct Linear Solver

No. of Data Rows : 121

No. of Data Rows : 1
inoise_total = 1.743263e-04
onoise_total = 1.859566e-05
ngspice-45.2 done
