Note: vrampc: dc value used for op instead of transient time=0 value.

Note: Compatibility modes selected: ps


Circuit: * tb06 - comparator stage (u9 tlv7034 unit a) + led indicator

===================================================================
TB06 (A) AS DESIGNED: IN- = V_REF_BUF = 1.65 V, sweep N1_SUM
===================================================================
Reducing trtol to 1 for xspice 'A' devices
Doing analysis at TEMP = 27.000000 and TNOM = 27.000000

Using SPARSE 1.3 as Direct Linear Solver

No. of Data Rows : 662
a_0v2               =  5.680956e-02
a_1v0               =  5.680956e-02
a_1v4               =  5.680956e-02
a_1v6               =  5.680956e-02
a_1v7               =  3.282072e+00
a_2v0               =  3.282072e+00
a_3v1               =  3.282072e+00
  N1_SUM=0.20 (below ref -> expect LED ON,  OUT LOW)  -> OUT = 0.0568096 V
  N1_SUM=1.00 (below ref -> expect LED ON,  OUT LOW)  -> OUT = 0.0568096 V
  N1_SUM=1.40 (below ref -> expect LED ON,  OUT LOW)  -> OUT = 0.0568096 V
  N1_SUM=1.60 (below ref -> expect LED ON,  OUT LOW)  -> OUT = 0.0568096 V
  N1_SUM=1.70 (above ref -> expect LED OFF, OUT HIGH) -> OUT = 3.28207 V
  N1_SUM=2.00 (above ref -> expect LED OFF, OUT HIGH) -> OUT = 3.28207 V
  N1_SUM=3.10 (above ref -> expect LED OFF, OUT HIGH) -> OUT = 3.28207 V
Note: vrampc: dc value used for op instead of transient time=0 value.
Note: Starting dynamic gmin stepping
Note: Dynamic gmin stepping completed
Note: vrampc: dc value used for op instead of transient time=0 value.
Note: Starting dynamic gmin stepping
Note: Dynamic gmin stepping completed
trip                =  1.652470e+00
  >>> Trip point = 1.65247 V   [target 1.65]
omin                =  5.680956e-02 at=  1.475000e+00
omax                =  3.282451e+00 at=  1.660000e+00
  >>> Output range: 0.0568096 .. 3.28245 V  (neither end stuck at 1.65)

  --- (D) LED CURRENT ---
  WARNING: the model's output stage is two idealised BJTs (NPN1/PNP1,
  LEVEL=1, RC=1). TB10(C) measured its VOL at 3 mA as 77 mV against a
  datasheet 250 mV typ / 350 mV max. The model is OPTIMISTIC about VOL,
  so the LED current below is an UPPER BOUND, not a prediction. Size
  R34-R36 from the datasheet, not from this number.
li_0v2              =  1.469510e-03
li_3v1              =  1.803446e-15
  R34 = 1000 ohm
  LED current at N1_SUM=0.20 (LED ON)  = 0.00146951 A   [model, optimistic]
  LED current at N1_SUM=3.10 (LED OFF) = 1.80345E-15 A

===================================================================
TB06 (B) COMMON-MODE MAP: IN- = 0.80 V (valid), sweep IN+ upward
===================================================================
  Correct behaviour: OUT LOW while IN+ < 0.80, OUT HIGH above it, and
  HIGH persisting all the way to the rail. On the LM339 this is where
  the part left a valid HIGH at 1.30045 V.
Reducing trtol to 1 for xspice 'A' devices
Doing analysis at TEMP = 27.000000 and TNOM = 27.000000

Using SPARSE 1.3 as Direct Linear Solver

No. of Data Rows : 1323
b_0v5               =  1.792819e-02
b_0v9               =  3.282072e+00
b_1v2               =  3.282072e+00
b_1v3               =  3.282072e+00
b_1v4               =  3.282072e+00
b_1v8               =  3.282072e+00
b_2v5               =  3.282072e+00
b_3v1               =  3.282072e+00
  IN+=0.50 (below ref -> expect LOW)  -> OUT = 0.0179282 V
  IN+=0.90 (above ref -> expect HIGH) -> OUT = 3.28207 V
  IN+=1.20 (above ref -> expect HIGH) -> OUT = 3.28207 V
  IN+=1.30 (LM339 model ceiling)      -> OUT = 3.28207 V
  IN+=1.40 (past LM339 model ceiling) -> OUT = 3.28207 V
  IN+=1.80 (LM339 datasheet ceiling)  -> OUT = 3.28207 V
  IN+=2.50 (N1_SUM reaches here)      -> OUT = 3.28207 V
  IN+=3.10 (N1_SUM max)               -> OUT = 3.28207 V
bmin                =  1.792819e-02 at=  7.675000e-01
bmax                =  3.282462e+00 at=  8.075000e-01
  >>> Output range: 0.0179282 .. 3.28246 V
  >>> No ceiling exists in 0..3.3: the part is valid everywhere N1_SUM
  >>> can go. (On the LM339 this sweep found a ceiling at 1.30045 V.)

===================================================================
TB06 (C) HYSTERESIS / CHATTER at the REAL 1.65 V reference
===================================================================
  Slow ramp 1.64->1.66 V over 40 ms (0.5 V/s) + 2 mV 100 Hz flicker
  + 200 uV RMS broadband noise. Identical stimulus to the LM339 run,
  which produced ~750 transitions across a 7.5 ms window.
Reducing trtol to 1 for xspice 'A' devices
Doing analysis at TEMP = 27.000000 and TNOM = 27.000000

Using SPARSE 1.3 as Direct Linear Solver

Initial Transient Solution
--------------------------

Node                                   Voltage
----                                   -------
vdd                                        3.3
nrefa                                     1.65
nsum                                      1.65
xc1.x1.x_u1.x_u7.vmid                     1.65
xc1.x1.x_u1.x_u7.evmid_int1               1.65
xc1.x1.x_u1.v+_buff                        3.3
xc1.x1.x_u1.v-_buff                          0
xc1.x1.x_u1.x_u7.vh                     0.0035
xc1.x1.x_u1.x_u7.evh_int1               0.0035
xc1.x1.x_u1.n00366                       0.007
xc1.x1.x_u1.x_u7.innnew                 1.6465
xc1.x1.x_u1.x_u7.einnnew_int1           1.6465
xc1.x1.x_u1.n00308                     3.23529
xc1.x1.x_u1.in-_buff                      1.65
xc1.x1.x_u1.x_u7.out                       3.3
xc1.x1.x_u1.x_u7.eout_int1                 3.3
xc1.x1.x_u1.in+_buff                      1.65
xc1.x1.x_u1.x_u4.x_u18.4                     0
xc1.x1.x_u1.x_u4.x_u18.e1_int1               0
xc1.x1.x_u1.x_u4.n24659                      0
xc1.x1.x_u1.x_u4.n24743                      0
xc1.x1.x_u1.x_u4.n24733                      0
xc1.x1.x_u1.x_u4.x_u2.eout_int1               0
xc1.x1.x_u1.x_u4.n24835                      6
xc1.x1.x_u1.x_u4.n25117                   -0.3
xc1.x1.x_u1.x_u4.x_u19.4                     0
xc1.x1.x_u1.x_u4.x_u19.e1_int1               0
xc1.x1.x_u1.x_u4.n25095                      0
xc1.x1.x_u1.x_u4.n25203                      0
xc1.x1.x_u1.x_u4.n24963                      0
xc1.x1.x_u1.x_u4.n25311                   -0.3
xc1.x1.x_u1.x_u4.x_u1.eout_int1               0
xc1.x1.x_u1.x_u4.n24639                      6
xc1.x1.x_u1.n00323                           0
xc1.x1.x_u1.x_u4.x_u20.eout_int1               0
xc1.x1.x_u1.x_u4.n25027                      1
xc1.x1.x_u1.x_u4.x_u3.eout_int1               0
xc1.x1.x_u1.x_u4.x_u17.eout_int1               0
xc1.x1.x_u1.x_u6.control                     0
xc1.x1.x_u1.x_u6.n773134           3.28307e-13
xc1.x1.x_u1.x_u6.n773128                     0
outa                                   3.28207
xc1.x1.x_u1.x_u6.n772690            0.00291502
xc1.x1.x_u1.x_u6.mid                      1.65
xc1.x1.x_u1.x_u6.1v                          1
xc1.x1.x_u1.x_u6.x_u6.e2_int1                0
xc1.x1.x_u1.x_u6.n773122                     1
xc1.x1.x_u1.x_u6.n772926                     1
xc1.x1.x_u1.x_u6.x_u3.3                    4.3
xc1.x1.x_u1.x_u6.x_u3.e1_int1              4.3
xc1.x1.x_u1.n00312                     3.23529
xc1.x1.x_u1.x_u6.n772534                   4.3
xc1.x1.x_u1.x_u6.n772678                   4.3
xc1.x1.x_u1.x_u6.x_u4.3                      1
xc1.x1.x_u1.x_u6.x_u4.e1_int1                1
xc1.x1.x_u1.x_u6.x_u8.4                      0
xc1.x1.x_u1.x_u6.x_u8.e1_int1                0
xc1.x1.x_u1.n00316                           0
xc1.x1.x_u1.x_u6.n772684                     0
xc1.x1.x_u1.x_u6.x_u5.e2_int1                0
xc1.x1.x_u1.x_u6.x_u7.vmid                1.65
xc1.x1.x_u1.x_u6.x_u7.evmid_int1            1.65
xc1.x1.x_u1.x_u6.x_u7.eout_int1            1.65
xc1.x1.x_u1.x_u3.x_u1.evdd_new_int1            1.65
xc1.x1.x_u1.x_u3.x_u1.evss_new_int1            1.65
xc1.x1.x_u1.x_u2.n18940                    3.3
xc1.x1.x_u1.x_u2.x_u5.eout_int1             3.3
xc1.x1.x_u1.x_u2.n18928                    5.5
xc1.x1.x_u1.x_u2.n18958                    3.3
xc1.x1.x_u1.x_u2.n19230                   1.65
xc1.x1.x_u1.x_u2.n19104                    3.3
xc1.x1.x_u1.x_u2.x_u15.eout_int1             3.3
xc1.x1.x_u1.x_u2.n19172                      1
xc1.x1.x_u1.x_u2.x_u13.eout_int1             3.3
xc1.x1.x_u1.x_u2.x_u17.vmid               1.65
xc1.x1.x_u1.x_u2.x_u17.evmid_int1            1.65
xc1.x1.x_u1.x_u2.x_u17.eout_int1               0
xc1.x1.x_u1.x_u2.n19100                    3.3
xc1.x1.x_u1.x_u2.x_u16.4                   3.3
xc1.x1.x_u1.x_u2.x_u16.e1_int1             3.3
xc1.x1.x_u1.x_u1.x_u1.evdd_new_int1             3.3
xc1.x1.x_u1.x_u1.x_u1.evss_new_int1               0
nled                                       3.3
nrefb                                      0.8
nsumb                                      0.5
xc2.x1.x_u1.x_u7.vmid                     1.65
xc2.x1.x_u1.x_u7.evmid_int1               1.65
xc2.x1.x_u1.v+_buff                        3.3
xc2.x1.x_u1.v-_buff                          0
xc2.x1.x_u1.x_u7.vh                     0.0035
xc2.x1.x_u1.x_u7.evh_int1               0.0035
xc2.x1.x_u1.n00366                       0.007
xc2.x1.x_u1.x_u7.innnew                 0.8035
xc2.x1.x_u1.x_u7.einnnew_int1           0.8035
xc2.x1.x_u1.n00308                           0
xc2.x1.x_u1.in-_buff                       0.8
xc2.x1.x_u1.x_u7.out                         0
xc2.x1.x_u1.x_u7.eout_int1                   0
xc2.x1.x_u1.in+_buff                       0.5
xc2.x1.x_u1.x_u4.x_u18.4                     0
xc2.x1.x_u1.x_u4.x_u18.e1_int1               0
xc2.x1.x_u1.x_u4.n24659                      0
xc2.x1.x_u1.x_u4.n24743                      0
xc2.x1.x_u1.x_u4.n24733                      0
xc2.x1.x_u1.x_u4.x_u2.eout_int1               0
xc2.x1.x_u1.x_u4.n24835                      6
xc2.x1.x_u1.x_u4.n25117                   -0.3
xc2.x1.x_u1.x_u4.x_u19.4                     0
xc2.x1.x_u1.x_u4.x_u19.e1_int1               0
xc2.x1.x_u1.x_u4.n25095                      0
xc2.x1.x_u1.x_u4.n25203                      0
xc2.x1.x_u1.x_u4.n24963                      0
xc2.x1.x_u1.x_u4.n25311                   -0.3
xc2.x1.x_u1.x_u4.x_u1.eout_int1               0
xc2.x1.x_u1.x_u4.n24639                      6
xc2.x1.x_u1.n00323                           0
xc2.x1.x_u1.x_u4.x_u20.eout_int1               0
xc2.x1.x_u1.x_u4.n25027                      1
xc2.x1.x_u1.x_u4.x_u3.eout_int1               0
xc2.x1.x_u1.x_u4.x_u17.eout_int1               0
xc2.x1.x_u1.x_u6.control                     0
xc2.x1.x_u1.x_u6.n773134              0.999717
xc2.x1.x_u1.x_u6.n773128                     1
outb                                 0.0179282
xc2.x1.x_u1.x_u6.n772690                   4.3
xc2.x1.x_u1.x_u6.mid                      1.65
xc2.x1.x_u1.x_u6.1v                          1
xc2.x1.x_u1.x_u6.x_u6.e2_int1                1
xc2.x1.x_u1.x_u6.n773122                     0
xc2.x1.x_u1.x_u6.n772926                     1
xc2.x1.x_u1.x_u6.x_u3.3                      0
xc2.x1.x_u1.x_u6.x_u3.e1_int1                0
xc2.x1.x_u1.n00312                           0
xc2.x1.x_u1.x_u6.n772534                   4.3
xc2.x1.x_u1.x_u6.n772678                     0
xc2.x1.x_u1.x_u6.x_u4.3                      0
xc2.x1.x_u1.x_u6.x_u4.e1_int1                0
xc2.x1.x_u1.x_u6.x_u8.4                      0
xc2.x1.x_u1.x_u6.x_u8.e1_int1                0
xc2.x1.x_u1.n00316                           0
xc2.x1.x_u1.x_u6.n772684                   4.3
xc2.x1.x_u1.x_u6.x_u5.e2_int1              4.3
xc2.x1.x_u1.x_u6.x_u7.vmid                1.65
xc2.x1.x_u1.x_u6.x_u7.evmid_int1            1.65
xc2.x1.x_u1.x_u6.x_u7.eout_int1            1.65
xc2.x1.x_u1.x_u3.x_u1.evdd_new_int1             0.5
xc2.x1.x_u1.x_u3.x_u1.evss_new_int1             0.8
xc2.x1.x_u1.x_u2.n18940                    3.3
xc2.x1.x_u1.x_u2.x_u5.eout_int1             3.3
xc2.x1.x_u1.x_u2.n18928                    5.5
xc2.x1.x_u1.x_u2.n18958                    3.3
xc2.x1.x_u1.x_u2.n19230                   1.65
xc2.x1.x_u1.x_u2.n19104                    3.3
xc2.x1.x_u1.x_u2.x_u15.eout_int1             3.3
xc2.x1.x_u1.x_u2.n19172                      1
xc2.x1.x_u1.x_u2.x_u13.eout_int1             3.3
xc2.x1.x_u1.x_u2.x_u17.vmid               1.65
xc2.x1.x_u1.x_u2.x_u17.evmid_int1            1.65
xc2.x1.x_u1.x_u2.x_u17.eout_int1               0
xc2.x1.x_u1.x_u2.n19100                    3.3
xc2.x1.x_u1.x_u2.x_u16.4                   3.3
xc2.x1.x_u1.x_u2.x_u16.e1_int1             3.3
xc2.x1.x_u1.x_u1.x_u1.evdd_new_int1             3.3
xc2.x1.x_u1.x_u1.x_u1.evss_new_int1               0
nrefc                                     1.65
nrampc                                    1.64
nflick                                    1.64
nnz                                       1.64
xc3.x1.x_u1.x_u7.vmid                     1.65
xc3.x1.x_u1.x_u7.evmid_int1               1.65
xc3.x1.x_u1.v+_buff                        3.3
xc3.x1.x_u1.v-_buff                          0
xc3.x1.x_u1.x_u7.vh                     0.0035
xc3.x1.x_u1.x_u7.evh_int1               0.0035
xc3.x1.x_u1.n00366                       0.007
xc3.x1.x_u1.x_u7.innnew                 1.6535
xc3.x1.x_u1.x_u7.einnnew_int1           1.6535
xc3.x1.x_u1.n00308                           0
xc3.x1.x_u1.in-_buff                      1.65
xc3.x1.x_u1.x_u7.out                         0
xc3.x1.x_u1.x_u7.eout_int1                   0
xc3.x1.x_u1.in+_buff                      1.64
xc3.x1.x_u1.x_u4.x_u18.4                     0
xc3.x1.x_u1.x_u4.x_u18.e1_int1               0
xc3.x1.x_u1.x_u4.n24659                      0
xc3.x1.x_u1.x_u4.n24743                      0
xc3.x1.x_u1.x_u4.n24733                      0
xc3.x1.x_u1.x_u4.x_u2.eout_int1               0
xc3.x1.x_u1.x_u4.n24835                      6
xc3.x1.x_u1.x_u4.n25117                   -0.3
xc3.x1.x_u1.x_u4.x_u19.4                     0
xc3.x1.x_u1.x_u4.x_u19.e1_int1               0
xc3.x1.x_u1.x_u4.n25095                      0
xc3.x1.x_u1.x_u4.n25203                      0
xc3.x1.x_u1.x_u4.n24963                      0
xc3.x1.x_u1.x_u4.n25311                   -0.3
xc3.x1.x_u1.x_u4.x_u1.eout_int1               0
xc3.x1.x_u1.x_u4.n24639                      6
xc3.x1.x_u1.n00323                           0
xc3.x1.x_u1.x_u4.x_u20.eout_int1               0
xc3.x1.x_u1.x_u4.n25027                      1
xc3.x1.x_u1.x_u4.x_u3.eout_int1               0
xc3.x1.x_u1.x_u4.x_u17.eout_int1               0
xc3.x1.x_u1.x_u6.control                     0
xc3.x1.x_u1.x_u6.n773134              0.999717
xc3.x1.x_u1.x_u6.n773128                     1
outc                                 0.0179282
xc3.x1.x_u1.x_u6.n772690                   4.3
xc3.x1.x_u1.x_u6.mid                      1.65
xc3.x1.x_u1.x_u6.1v                          1
xc3.x1.x_u1.x_u6.x_u6.e2_int1                1
xc3.x1.x_u1.x_u6.n773122                     0
xc3.x1.x_u1.x_u6.n772926                     1
xc3.x1.x_u1.x_u6.x_u3.3                      0
xc3.x1.x_u1.x_u6.x_u3.e1_int1                0
xc3.x1.x_u1.n00312                           0
xc3.x1.x_u1.x_u6.n772534                   4.3
xc3.x1.x_u1.x_u6.n772678                     0
xc3.x1.x_u1.x_u6.x_u4.3                      0
xc3.x1.x_u1.x_u6.x_u4.e1_int1                0
xc3.x1.x_u1.x_u6.x_u8.4                      0
xc3.x1.x_u1.x_u6.x_u8.e1_int1                0
xc3.x1.x_u1.n00316                           0
xc3.x1.x_u1.x_u6.n772684                   4.3
xc3.x1.x_u1.x_u6.x_u5.e2_int1              4.3
xc3.x1.x_u1.x_u6.x_u7.vmid                1.65
xc3.x1.x_u1.x_u6.x_u7.evmid_int1            1.65
xc3.x1.x_u1.x_u6.x_u7.eout_int1            1.65
xc3.x1.x_u1.x_u3.x_u1.evdd_new_int1            1.64
xc3.x1.x_u1.x_u3.x_u1.evss_new_int1            1.65
xc3.x1.x_u1.x_u2.n18940                    3.3
xc3.x1.x_u1.x_u2.x_u5.eout_int1             3.3
xc3.x1.x_u1.x_u2.n18928                    5.5
xc3.x1.x_u1.x_u2.n18958                    3.3
xc3.x1.x_u1.x_u2.n19230                   1.65
xc3.x1.x_u1.x_u2.n19104                    3.3
xc3.x1.x_u1.x_u2.x_u15.eout_int1             3.3
xc3.x1.x_u1.x_u2.n19172                      1
xc3.x1.x_u1.x_u2.x_u13.eout_int1             3.3
xc3.x1.x_u1.x_u2.x_u17.vmid               1.65
xc3.x1.x_u1.x_u2.x_u17.evmid_int1            1.65
xc3.x1.x_u1.x_u2.x_u17.eout_int1               0
xc3.x1.x_u1.x_u2.n19100                    3.3
xc3.x1.x_u1.x_u2.x_u16.4                   3.3
xc3.x1.x_u1.x_u2.x_u16.e1_int1             3.3
xc3.x1.x_u1.x_u1.x_u1.evdd_new_int1             3.3
xc3.x1.x_u1.x_u1.x_u1.evss_new_int1               0
b.xc3.x1.x_u1.x_u1.x_u1.bevss_new#branch               0
b.xc3.x1.x_u1.x_u1.x_u1.bevdd_new#branch               0
b.xc3.x1.x_u1.x_u2.x_u16.be1#branch               0
b.xc3.x1.x_u1.x_u2.x_u17.beout#branch               0
b.xc3.x1.x_u1.x_u2.x_u17.bevmid#branch               0
b.xc3.x1.x_u1.x_u2.x_u13.beout#branch               0
b.xc3.x1.x_u1.x_u2.x_u15.beout#branch               0
b.xc3.x1.x_u1.x_u2.x_u5.beout#branch               0
b.xc3.x1.x_u1.x_u3.x_u1.bevss_new#branch               0
b.xc3.x1.x_u1.x_u3.x_u1.bevdd_new#branch               0
b.xc3.x1.x_u1.x_u6.x_u7.beout#branch               0
b.xc3.x1.x_u1.x_u6.x_u7.bevmid#branch               0
b.xc3.x1.x_u1.x_u6.x_u5.be2#branch               0
b.xc3.x1.x_u1.x_u6.x_u8.be1#branch               0
b.xc3.x1.x_u1.x_u6.x_u4.be1#branch               0
b.xc3.x1.x_u1.x_u6.x_u3.be1#branch               0
b.xc3.x1.x_u1.x_u6.x_u6.be2#branch               0
b.xc3.x1.x_u1.x_u4.x_u17.beout#branch               0
b.xc3.x1.x_u1.x_u4.x_u3.beout#branch               0
b.xc3.x1.x_u1.x_u4.x_u20.beout#branch               0
b.xc3.x1.x_u1.x_u4.x_u1.beout#branch               0
b.xc3.x1.x_u1.x_u4.x_u19.be1#branch               0
b.xc3.x1.x_u1.x_u4.x_u2.beout#branch               0
b.xc3.x1.x_u1.x_u4.x_u18.be1#branch               0
b.xc3.x1.x_u1.x_u7.beout#branch               0
b.xc3.x1.x_u1.x_u7.beinnnew#branch               0
b.xc3.x1.x_u1.x_u7.bevh#branch               0
b.xc3.x1.x_u1.x_u7.bevmid#branch               0
b.xc2.x1.x_u1.x_u1.x_u1.bevss_new#branch               0
b.xc2.x1.x_u1.x_u1.x_u1.bevdd_new#branch               0
b.xc2.x1.x_u1.x_u2.x_u16.be1#branch               0
b.xc2.x1.x_u1.x_u2.x_u17.beout#branch               0
b.xc2.x1.x_u1.x_u2.x_u17.bevmid#branch               0
b.xc2.x1.x_u1.x_u2.x_u13.beout#branch               0
b.xc2.x1.x_u1.x_u2.x_u15.beout#branch               0
b.xc2.x1.x_u1.x_u2.x_u5.beout#branch               0
b.xc2.x1.x_u1.x_u3.x_u1.bevss_new#branch               0
b.xc2.x1.x_u1.x_u3.x_u1.bevdd_new#branch               0
b.xc2.x1.x_u1.x_u6.x_u7.beout#branch               0
b.xc2.x1.x_u1.x_u6.x_u7.bevmid#branch               0
b.xc2.x1.x_u1.x_u6.x_u5.be2#branch               0
b.xc2.x1.x_u1.x_u6.x_u8.be1#branch               0
b.xc2.x1.x_u1.x_u6.x_u4.be1#branch               0
b.xc2.x1.x_u1.x_u6.x_u3.be1#branch               0
b.xc2.x1.x_u1.x_u6.x_u6.be2#branch               0
b.xc2.x1.x_u1.x_u4.x_u17.beout#branch               0
b.xc2.x1.x_u1.x_u4.x_u3.beout#branch               0
b.xc2.x1.x_u1.x_u4.x_u20.beout#branch               0
b.xc2.x1.x_u1.x_u4.x_u1.beout#branch               0
b.xc2.x1.x_u1.x_u4.x_u19.be1#branch               0
b.xc2.x1.x_u1.x_u4.x_u2.beout#branch               0
b.xc2.x1.x_u1.x_u4.x_u18.be1#branch               0
b.xc2.x1.x_u1.x_u7.beout#branch               0
b.xc2.x1.x_u1.x_u7.beinnnew#branch               0
b.xc2.x1.x_u1.x_u7.bevh#branch               0
b.xc2.x1.x_u1.x_u7.bevmid#branch               0
b.xc1.x1.x_u1.x_u1.x_u1.bevss_new#branch               0
b.xc1.x1.x_u1.x_u1.x_u1.bevdd_new#branch               0
b.xc1.x1.x_u1.x_u2.x_u16.be1#branch               0
b.xc1.x1.x_u1.x_u2.x_u17.beout#branch               0
b.xc1.x1.x_u1.x_u2.x_u17.bevmid#branch               0
b.xc1.x1.x_u1.x_u2.x_u13.beout#branch               0
b.xc1.x1.x_u1.x_u2.x_u15.beout#branch               0
b.xc1.x1.x_u1.x_u2.x_u5.beout#branch               0
b.xc1.x1.x_u1.x_u3.x_u1.bevss_new#branch               0
b.xc1.x1.x_u1.x_u3.x_u1.bevdd_new#branch               0
b.xc1.x1.x_u1.x_u6.x_u7.beout#branch               0
b.xc1.x1.x_u1.x_u6.x_u7.bevmid#branch               0
b.xc1.x1.x_u1.x_u6.x_u5.be2#branch               0
b.xc1.x1.x_u1.x_u6.x_u8.be1#branch               0
b.xc1.x1.x_u1.x_u6.x_u4.be1#branch               0
b.xc1.x1.x_u1.x_u6.x_u3.be1#branch               0
b.xc1.x1.x_u1.x_u6.x_u6.be2#branch               0
b.xc1.x1.x_u1.x_u4.x_u17.beout#branch               0
b.xc1.x1.x_u1.x_u4.x_u3.beout#branch               0
b.xc1.x1.x_u1.x_u4.x_u20.beout#branch               0
b.xc1.x1.x_u1.x_u4.x_u1.beout#branch               0
b.xc1.x1.x_u1.x_u4.x_u19.be1#branch               0
b.xc1.x1.x_u1.x_u4.x_u2.beout#branch               0
b.xc1.x1.x_u1.x_u4.x_u18.be1#branch               0
b.xc1.x1.x_u1.x_u7.beout#branch               0
b.xc1.x1.x_u1.x_u7.beinnnew#branch               0
b.xc1.x1.x_u1.x_u7.bevh#branch               0
b.xc1.x1.x_u1.x_u7.bevmid#branch               0
e.xc3.x1.x_u1.x_u1.x_u1.evss_new#branch         3.90028
e.xc3.x1.x_u1.x_u1.x_u1.evdd_new#branch     1.00001e-13
e.xc3.x1.x_u1.x_u2.x_u16.e1#branch               0
e.xc3.x1.x_u1.x_u2.x_u17.eout#branch               0
e.xc3.x1.x_u1.x_u2.x_u17.evmid#branch               0
e.xc3.x1.x_u1.x_u2.x_u13.eout#branch            -3.3
e.xc3.x1.x_u1.x_u2.x_u15.eout#branch           -1.65
e.xc3.x1.x_u1.x_u2.x_u5.eout#branch               0
e.xc3.x1.x_u1.x_u3.x_u1.evss_new#branch           -1.65
e.xc3.x1.x_u1.x_u3.x_u1.evdd_new#branch           -1.64
e.xc3.x1.x_u1.x_u6.x_u7.eout#branch    -1.63207e-12
e.xc3.x1.x_u1.x_u6.x_u7.evmid#branch               0
e.xc3.x1.x_u1.x_u6.x_u5.e2#branch    -9.58345e-13
e.xc3.x1.x_u1.x_u6.x_u8.e1#branch               0
e.xc3.x1.x_u1.x_u6.x_u4.e1#branch               0
e.xc3.x1.x_u1.x_u6.x_u3.e1#branch               0
e.xc3.x1.x_u1.x_u6.x_u6.e2#branch    -0.000283181
e.xc3.x1.x_u1.x_u4.x_u17.eout#branch            -0.3
e.xc3.x1.x_u1.x_u4.x_u3.eout#branch            -0.3
e.xc3.x1.x_u1.x_u4.x_u20.eout#branch               0
e.xc3.x1.x_u1.x_u4.x_u1.eout#branch            1.64
e.xc3.x1.x_u1.x_u4.x_u19.e1#branch               0
e.xc3.x1.x_u1.x_u4.x_u2.eout#branch            1.65
e.xc3.x1.x_u1.x_u4.x_u18.e1#branch               0
e.xc3.x1.x_u1.x_u7.eout#branch               0
e.xc3.x1.x_u1.x_u7.einnnew#branch               0
e.xc3.x1.x_u1.x_u7.evh#branch                0
e.xc3.x1.x_u1.x_u7.evmid#branch               0
e.xc2.x1.x_u1.x_u1.x_u1.evss_new#branch         3.90028
e.xc2.x1.x_u1.x_u1.x_u1.evdd_new#branch     1.00001e-13
e.xc2.x1.x_u1.x_u2.x_u16.e1#branch               0
e.xc2.x1.x_u1.x_u2.x_u17.eout#branch               0
e.xc2.x1.x_u1.x_u2.x_u17.evmid#branch               0
e.xc2.x1.x_u1.x_u2.x_u13.eout#branch            -3.3
e.xc2.x1.x_u1.x_u2.x_u15.eout#branch           -1.65
e.xc2.x1.x_u1.x_u2.x_u5.eout#branch               0
e.xc2.x1.x_u1.x_u3.x_u1.evss_new#branch            -0.8
e.xc2.x1.x_u1.x_u3.x_u1.evdd_new#branch            -0.5
e.xc2.x1.x_u1.x_u6.x_u7.eout#branch    -1.63207e-12
e.xc2.x1.x_u1.x_u6.x_u7.evmid#branch               0
e.xc2.x1.x_u1.x_u6.x_u5.e2#branch    -9.58345e-13
e.xc2.x1.x_u1.x_u6.x_u8.e1#branch               0
e.xc2.x1.x_u1.x_u6.x_u4.e1#branch               0
e.xc2.x1.x_u1.x_u6.x_u3.e1#branch               0
e.xc2.x1.x_u1.x_u6.x_u6.e2#branch    -0.000283181
e.xc2.x1.x_u1.x_u4.x_u17.eout#branch            -0.3
e.xc2.x1.x_u1.x_u4.x_u3.eout#branch            -0.3
e.xc2.x1.x_u1.x_u4.x_u20.eout#branch               0
e.xc2.x1.x_u1.x_u4.x_u1.eout#branch             0.5
e.xc2.x1.x_u1.x_u4.x_u19.e1#branch               0
e.xc2.x1.x_u1.x_u4.x_u2.eout#branch             0.8
e.xc2.x1.x_u1.x_u4.x_u18.e1#branch               0
e.xc2.x1.x_u1.x_u7.eout#branch               0
e.xc2.x1.x_u1.x_u7.einnnew#branch               0
e.xc2.x1.x_u1.x_u7.evh#branch                0
e.xc2.x1.x_u1.x_u7.evmid#branch               0
e.xc1.x1.x_u1.x_u1.x_u1.evss_new#branch             3.9
e.xc1.x1.x_u1.x_u1.x_u1.evdd_new#branch     -0.00291502
e.xc1.x1.x_u1.x_u2.x_u16.e1#branch               0
e.xc1.x1.x_u1.x_u2.x_u17.eout#branch               0
e.xc1.x1.x_u1.x_u2.x_u17.evmid#branch               0
e.xc1.x1.x_u1.x_u2.x_u13.eout#branch            -3.3
e.xc1.x1.x_u1.x_u2.x_u15.eout#branch           -1.65
e.xc1.x1.x_u1.x_u2.x_u5.eout#branch               0
e.xc1.x1.x_u1.x_u3.x_u1.evss_new#branch           -1.65
e.xc1.x1.x_u1.x_u3.x_u1.evdd_new#branch           -1.65
e.xc1.x1.x_u1.x_u6.x_u7.eout#branch     1.63207e-12
e.xc1.x1.x_u1.x_u6.x_u7.evmid#branch               0
e.xc1.x1.x_u1.x_u6.x_u5.e2#branch      0.00291502
e.xc1.x1.x_u1.x_u6.x_u8.e1#branch               0
e.xc1.x1.x_u1.x_u6.x_u4.e1#branch               0
e.xc1.x1.x_u1.x_u6.x_u3.e1#branch               0
e.xc1.x1.x_u1.x_u6.x_u6.e2#branch     3.28307e-13
e.xc1.x1.x_u1.x_u4.x_u17.eout#branch            -0.3
e.xc1.x1.x_u1.x_u4.x_u3.eout#branch            -0.3
e.xc1.x1.x_u1.x_u4.x_u20.eout#branch               0
e.xc1.x1.x_u1.x_u4.x_u1.eout#branch            1.65
e.xc1.x1.x_u1.x_u4.x_u19.e1#branch               0
e.xc1.x1.x_u1.x_u4.x_u2.eout#branch            1.65
e.xc1.x1.x_u1.x_u4.x_u18.e1#branch               0
e.xc1.x1.x_u1.x_u7.eout#branch      -0.0647059
e.xc1.x1.x_u1.x_u7.einnnew#branch               0
e.xc1.x1.x_u1.x_u7.evh#branch                0
e.xc1.x1.x_u1.x_u7.evmid#branch               0
v.xc3.x1.x_u1.v_v1#branch                    0
v.xc3.x1.x_u1.x_u2.v_v1#branch               0
v.xc3.x1.x_u1.x_u2.v_v5#branch               0
v.xc3.x1.x_u1.x_u2.v_v4#branch            1.65
v.xc3.x1.x_u1.x_u6.v_v1#branch               0
v.xc3.x1.x_u1.x_u6.v_v2#branch               0
v.xc3.x1.x_u1.x_u6.v_v3#branch               0
v.xc3.x1.x_u1.x_u4.v_v2#branch               0
v.xc3.x1.x_u1.x_u4.v_v5#branch               0
v.xc3.x1.x_u1.x_u4.v_v1#branch               0
v.xc3.x1.x_u1.x_u4.v_v4#branch             0.3
v.xc3.x1.x_u1.x_u4.v_v3#branch             0.3
vnoise#branch                           -2e-12
vflick#branch                           -2e-12
vrampc#branch                           -2e-12
vrefc#branch                            -2e-12
v.xc2.x1.x_u1.v_v1#branch                    0
v.xc2.x1.x_u1.x_u2.v_v1#branch               0
v.xc2.x1.x_u1.x_u2.v_v5#branch               0
v.xc2.x1.x_u1.x_u2.v_v4#branch            1.65
v.xc2.x1.x_u1.x_u6.v_v1#branch               0
v.xc2.x1.x_u1.x_u6.v_v2#branch               0
v.xc2.x1.x_u1.x_u6.v_v3#branch               0
v.xc2.x1.x_u1.x_u4.v_v2#branch               0
v.xc2.x1.x_u1.x_u4.v_v5#branch               0
v.xc2.x1.x_u1.x_u4.v_v1#branch               0
v.xc2.x1.x_u1.x_u4.v_v4#branch             0.3
v.xc2.x1.x_u1.x_u4.v_v3#branch             0.3
vsumb#branch                            -2e-12
vrefb#branch                            -2e-12
v.xc1.x1.x_u1.v_v1#branch                    0
v.xc1.x1.x_u1.x_u2.v_v1#branch               0
v.xc1.x1.x_u1.x_u2.v_v5#branch               0
v.xc1.x1.x_u1.x_u2.v_v4#branch            1.65
v.xc1.x1.x_u1.x_u6.v_v1#branch               0
v.xc1.x1.x_u1.x_u6.v_v2#branch               0
v.xc1.x1.x_u1.x_u6.v_v3#branch               0
v.xc1.x1.x_u1.x_u4.v_v2#branch               0
v.xc1.x1.x_u1.x_u4.v_v5#branch               0
v.xc1.x1.x_u1.x_u4.v_v1#branch               0
v.xc1.x1.x_u1.x_u4.v_v4#branch             0.3
v.xc1.x1.x_u1.x_u4.v_v3#branch             0.3
vsum#branch                             -2e-12
vrefa#branch                            -2e-12
vdd#branch                          -1.005e-06

 Reference value :  3.79080e-04 Reference value :  1.26745e-03 Reference value :  2.20456e-03 Reference value :  3.16206e-03 Reference value :  4.12200e-03 Reference value :  5.07945e-03 Reference value :  6.04240e-03 Reference value :  7.00419e-03 Reference value :  7.97056e-03 Reference value :  8.93407e-03 Reference value :  9.88767e-03 Reference value :  1.08492e-02 Reference value :  1.18174e-02 Reference value :  1.27805e-02 Reference value :  1.37456e-02 Reference value :  1.47041e-02 Reference value :  1.56690e-02 Reference value :  1.66287e-02 Reference value :  1.75914e-02 Reference value :  1.85530e-02 Reference value :  1.95170e-02 Reference value :  2.04770e-02 Reference value :  2.14440e-02 Reference value :  2.24091e-02 Reference value :  2.33743e-02 Reference value :  2.43362e-02 Reference value :  2.53021e-02 Reference value :  2.62264e-02 Reference value :  2.71874e-02 Reference value :  2.81430e-02 Reference value :  2.91046e-02 Reference value :  3.00646e-02 Reference value :  3.10261e-02 Reference value :  3.19854e-02 Reference value :  3.29436e-02 Reference value :  3.38991e-02 Reference value :  3.48601e-02 Reference value :  3.58207e-02 Reference value :  3.67810e-02 Reference value :  3.77401e-02 Reference value :  3.87014e-02 Reference value :  3.96624e-02
No. of Data Rows : 175322
  Transient written to results/tb06c_chatter.txt
  (edge count is produced by results/count_edges.py)
ngspice-45.2 done
