Note: Starting dynamic gmin stepping
Warning: Dynamic gmin stepping failed
Note: Starting true gmin stepping
Warning: True gmin stepping failed
Note: Starting source stepping
Note: Source stepping completed

Note: Compatibility modes selected: ps


Circuit: * tb08 - full neuron chain, end to end

================================================================
TB08 PASS 1 -- AS DRAWN: R4-R6 = 100k, R34 = 1k
================================================================
  Divider centres at R_LDR = 100k == ~1.5 lux (near dark).

Reducing trtol to 1 for xspice 'A' devices
Doing analysis at TEMP = 27.000000 and TNOM = 27.000000

Using SPARSE 1.3 as Direct Linear Solver

No. of Data Rows : 401
vb1_1k              =  3.254061e+00
vb1_23k             =  2.682306e+00
vb1_100k            =  1.649360e+00
vb1_500k            =  5.493446e-01
sum_1k              =  1.295605e+00
sum_23k             =  1.421296e+00
sum_100k            =  1.648373e+00
sum_500k            =  1.890194e+00
out_1k              =  5.680956e-02
out_23k             =  5.680956e-02
out_100k            =  5.680956e-02
out_500k            =  3.282072e+00
  R_LDR1=1k    (~900 lux): V_BUF_1 = 3.25406  N1_SUM = 1.29561  OUT = 0.0568096
  R_LDR1=23k   (~10 lux) : V_BUF_1 = 2.68231  N1_SUM = 1.4213  OUT = 0.0568096
  R_LDR1=100k  (~1.5 lux): V_BUF_1 = 1.64936  N1_SUM = 1.64837  OUT = 0.0568096
  R_LDR1=500k  (dark)    : V_BUF_1 = 0.549345  N1_SUM = 1.89019  OUT = 3.28207
smin1               =  1.295605e+00 at=  3.000000e+00
smax1               =  2.003889e+00 at=  7.000000e+00
omin1               =  5.680956e-02 at=  3.000000e+00
omax1               =  3.282451e+00 at=  5.030000e+00

  N1_SUM range over the sweep : 1.29561 .. 2.00389 V
  OUT    range over the sweep : 0.0568096 .. 3.28245 V
  >>> On the LM339 this OUT range was 1.65005 .. 1.65005 (stuck: the
  >>> macromodel's out-of-range flag). A range spanning both rails
  >>> means the decision stage is live.

================================================================
TB08 PASS 2 -- PROPOSED: R4-R6 = 3.3k, R34 = 330
================================================================
  Divider centres at R_LDR = 3.3k == ~141 lux (room light).

Reducing trtol to 1 for xspice 'A' devices
Doing analysis at TEMP = 27.000000 and TNOM = 27.000000

Using SPARSE 1.3 as Direct Linear Solver
 Reference value :  2.50000e+00
No. of Data Rows : 401
p_vb1_760           =  2.681635e+00
p_vb1_3k3           =  1.649387e+00
p_vb1_24k           =  3.983746e-01
p_vb1_500k          =  2.112474e-02
p_sum_760           =  1.421447e+00
p_sum_3k3           =  1.648370e+00
p_sum_24k           =  1.923385e+00
p_sum_500k          =  2.006318e+00
p_out_760           =  8.843158e-02
p_out_3k3           =  8.843158e-02
p_out_24k           =  3.282072e+00
p_out_500k          =  3.282072e+00
  R_LDR1=760R  (~1000 lux): V_BUF_1 = 2.68163  N1_SUM = 1.42145  OUT = 0.0884316
  R_LDR1=3.3k  (~141 lux) : V_BUF_1 = 1.64939  N1_SUM = 1.64837  OUT = 0.0884316
  R_LDR1=24k   (~10 lux)  : V_BUF_1 = 0.398375  N1_SUM = 1.92339  OUT = 3.28207
  R_LDR1=500k  (dark)     : V_BUF_1 = 0.0211247  N1_SUM = 2.00632  OUT = 3.28207

  Closed-form check at R_LDR1 = 3.3k (the centre):
    V_BUF_1 = 3.3*3.3/(3.3+3.3) = 1.650 -> v1 = 0 -> N1_SUM = 1.650
    i.e. the divider centre should land exactly on the trip point.
smin2               =  1.349113e+00 at=  2.500000e+00
smax2               =  2.010317e+00 at=  6.500000e+00
omin2               =  8.843158e-02 at=  3.070000e+00
omax2               =  3.282443e+00 at=  3.540000e+00

  N1_SUM range over the sweep : 1.34911 .. 2.01032 V
  OUT    range over the sweep : 0.0884316 .. 3.28244 V
sw_rexp             =  3.524890e+00
  >>> LED switches off at R_LDR1 = 3348.81 ohm   [expect 3300 = RFIX]

  --- LED current, PASS 2 (R34 = 330) ---
  WARNING: model VOL is optimistic (TB10(C): 77 mV vs datasheet 250 mV
  typ at 3 mA). Treat as an UPPER BOUND; size R34 from the datasheet.
li_on               =  4.177067e-03
li_off              =  6.619809e-13
  LED current, LED ON  = 0.00417707 A   [model, optimistic]
  LED current, LED OFF = 6.61981E-13 A
ngspice-45.2 done
