Note: Starting dynamic gmin stepping
Note: Dynamic gmin stepping completed

Note: Compatibility modes selected: ps


Circuit: * tb08 - full neuron chain, end to end

================================================================
TB08: FULL NEURON CHAIN -- sweep LDR1 across its whole range
================================================================
  LDR2 = LDR3 = 23k (10 lux). Weights D1=D2=D3=Db=128 initially.

Reducing trtol to 1 for xspice 'A' devices
Doing analysis at TEMP = 27.000000 and TNOM = 27.000000

Using SPARSE 1.3 as Direct Linear Solver

No. of Data Rows : 401
vb1_1k              =  3.254061e+00
vb1_23k             =  2.682306e+00
vb1_500k            =  5.493446e-01
iv1_23k             =  6.151394e-01
sum_1k              =  1.407046e+00
sum_23k             =  1.532737e+00
sum_100k            =  1.759814e+00
sum_500k            =  2.001635e+00
--- Analog path (weights w1=+1, w2=-0.5, w3=0, bias 0) ---
  R_LDR1=1k   : V_BUF_1 = 3.25406   N1_SUM = 1.40705
  R_LDR1=23k  : V_BUF_1 = 2.68231  N1_SUM = 1.53274
                INV_V_1 = 0.615139  (should be 3.3 - V_BUF_1)
  R_LDR1=100k : N1_SUM = 1.75981
  R_LDR1=500k : V_BUF_1 = 0.549345 N1_SUM = 2.00163

  Closed-form check at R_LDR1=23k: N1_SUM should be ~1.536 V

--- Comparator / LED state across the sweep ---
out_1k              =  1.650052e+00
out_23k             =  1.650052e+00
out_500k            =  1.650052e+00
  R_LDR1=1k   : U10 OUT = 1.65005 V
  R_LDR1=23k  : U10 OUT = 1.65005 V
  R_LDR1=500k : U10 OUT = 1.65005 V
  (1.65 V = LM339 macromodel's out-of-common-mode-range flag)

--- Does N1_SUM ever get inside the LM339's valid CM window? ---
sum_min             =  1.407046e+00 at=  3.030000e+00
sum_max             =  2.115330e+00 at=  7.000000e+00
  N1_SUM range over the whole LDR1 sweep: 1.40705 .. 2.11533 V
  LM339 datasheet CM ceiling at Vcc=3.3 : 1.80 V
  TI macromodel CM ceiling               : 1.30 V
  V_REF_BUF (the comparator's other input): 1.65 V -- fixed, always
  >>> The reference alone is above the model's ceiling, so no input
  >>> value can produce a valid comparison. The analog front end is
  >>> fine; the decision stage is what fails.
ngspice-45.2 done
