Note: vsumf: dc value used for op instead of transient time=0 value.
Note: vsume: dc value used for op instead of transient time=0 value.

Note: Compatibility modes selected: ps


Circuit: * tb10 - tlv7034 model validation

===================================================================
TB10 (A) INPUT CM RANGE with IN- = 1.65 V (the LM339 killer)
===================================================================
Reducing trtol to 1 for xspice 'A' devices
Doing analysis at TEMP = 27.000000 and TNOM = 27.000000

Using SPARSE 1.3 as Direct Linear Solver

No. of Data Rows : 662
a_0v0               =  1.792819e-02
a_0v2               =  1.792819e-02
a_1v0               =  1.792819e-02
a_1v6               =  1.792819e-02
a_1v7               =  3.282072e+00
a_2v5               =  3.282072e+00
a_3v1               =  3.282072e+00
a_3v3               =  3.282072e+00
  IN+=0.00 (below ref -> expect LOW)  -> OUT = 0.0179282 V
  IN+=0.20 (below ref -> expect LOW)  -> OUT = 0.0179282 V   [N_SUM min]
  IN+=1.00 (below ref -> expect LOW)  -> OUT = 0.0179282 V
  IN+=1.60 (below ref -> expect LOW)  -> OUT = 0.0179282 V
  IN+=1.70 (above ref -> expect HIGH) -> OUT = 3.28207 V
  IN+=2.50 (above ref -> expect HIGH) -> OUT = 3.28207 V   [was invalid on LM339]
  IN+=3.10 (above ref -> expect HIGH) -> OUT = 3.28207 V   [N_SUM max]
  IN+=3.30 (above ref -> expect HIGH) -> OUT = 3.28207 V
Note: vsumf: dc value used for op instead of transient time=0 value.
Note: vsume: dc value used for op instead of transient time=0 value.
Note: vsumf: dc value used for op instead of transient time=0 value.
Note: vsume: dc value used for op instead of transient time=0 value.
Note: vsumf: dc value used for op instead of transient time=0 value.
Note: vsume: dc value used for op instead of transient time=0 value.
trip_a              =  1.652500e+00
  >>> Trip point = 1.6525 V   [target 1.65]
omin                =  1.792819e-02 at=  1.555000e+00
omax                =  3.282462e+00 at=  1.660000e+00
  >>> Output range over the whole sweep: 0.0179282 .. 3.28246 V
  >>> (a stuck 1.65 V here would mean the mid-supply invalidity flag
  >>>  tripped, exactly as it did for the LM339)

===================================================================
TB10 (B) CM CEILING PROBE: IN- = 0.80 V, sweep IN+ past the rail
===================================================================
Reducing trtol to 1 for xspice 'A' devices
Doing analysis at TEMP = 27.000000 and TNOM = 27.000000

Using SPARSE 1.3 as Direct Linear Solver

No. of Data Rows : 1323
b_0v5               =  1.792819e-02
b_1v3               =  3.282072e+00
b_1v8               =  3.282072e+00
b_2v5               =  3.282072e+00
b_3v3               =  3.282072e+00
  IN+=0.50 (below ref -> expect LOW)  -> OUT = 0.0179282 V
  IN+=1.30 (LM339 model died here)    -> OUT = 3.28207 V
  IN+=1.80 (LM339 datasheet limit)    -> OUT = 3.28207 V
  IN+=2.50                            -> OUT = 3.28207 V
  IN+=3.30 (at the rail)              -> OUT = 3.28207 V

===================================================================
TB10 (C) VOL / VOH at the datasheet's 3 mA test current
===================================================================
Reducing trtol to 1 for xspice 'A' devices
Doing analysis at TEMP = 27.000000 and TNOM = 27.000000

Using SPARSE 1.3 as Direct Linear Solver

No. of Data Rows : 1
  VOL at 3 mA sink   = 0.0769395 V        [datasheet 250 mV typ / 350 max @ Vs=5V]
  VOH at 3 mA source = 3.26803 V  (drop 0.0319723 V)
  NOTE: datasheet specifies these at Vs = 5 V; this runs at 3.3 V.

===================================================================
TB10 (D) HYSTERESIS width
===================================================================
Reducing trtol to 1 for xspice 'A' devices
Doing analysis at TEMP = 27.000000 and TNOM = 27.000000

Using SPARSE 1.3 as Direct Linear Solver

Initial Transient Solution
--------------------------

Node                                   Voltage
----                                   -------
vdd                                        3.3
nrefa                                     1.65
nsuma                                        0
xca.x1.x_u1.x_u7.vmid                     1.65
xca.x1.x_u1.x_u7.evmid_int1               1.65
xca.x1.x_u1.v+_buff                        3.3
xca.x1.x_u1.v-_buff                          0
xca.x1.x_u1.x_u7.vh                     0.0035
xca.x1.x_u1.x_u7.evh_int1               0.0035
xca.x1.x_u1.n00366                       0.007
xca.x1.x_u1.x_u7.innnew                 1.6535
xca.x1.x_u1.x_u7.einnnew_int1           1.6535
xca.x1.x_u1.n00308                           0
xca.x1.x_u1.in-_buff                      1.65
xca.x1.x_u1.x_u7.out                         0
xca.x1.x_u1.x_u7.eout_int1                   0
xca.x1.x_u1.in+_buff                         0
xca.x1.x_u1.x_u4.x_u18.4                     0
xca.x1.x_u1.x_u4.x_u18.e1_int1               0
xca.x1.x_u1.x_u4.n24659                      0
xca.x1.x_u1.x_u4.n24743                      0
xca.x1.x_u1.x_u4.n24733                      0
xca.x1.x_u1.x_u4.x_u2.eout_int1               0
xca.x1.x_u1.x_u4.n24835                      6
xca.x1.x_u1.x_u4.n25117                   -0.3
xca.x1.x_u1.x_u4.x_u19.4                     0
xca.x1.x_u1.x_u4.x_u19.e1_int1               0
xca.x1.x_u1.x_u4.n25095                      0
xca.x1.x_u1.x_u4.n25203                      0
xca.x1.x_u1.x_u4.n24963                      0
xca.x1.x_u1.x_u4.n25311                   -0.3
xca.x1.x_u1.x_u4.x_u1.eout_int1               0
xca.x1.x_u1.x_u4.n24639                      6
xca.x1.x_u1.n00323                           0
xca.x1.x_u1.x_u4.x_u20.eout_int1               0
xca.x1.x_u1.x_u4.n25027                      1
xca.x1.x_u1.x_u4.x_u3.eout_int1               0
xca.x1.x_u1.x_u4.x_u17.eout_int1               0
xca.x1.x_u1.x_u6.control                     0
xca.x1.x_u1.x_u6.n773134              0.999717
xca.x1.x_u1.x_u6.n773128                     1
outa                                 0.0179282
xca.x1.x_u1.x_u6.n772690                   4.3
xca.x1.x_u1.x_u6.mid                      1.65
xca.x1.x_u1.x_u6.1v                          1
xca.x1.x_u1.x_u6.x_u6.e2_int1                1
xca.x1.x_u1.x_u6.n773122                     0
xca.x1.x_u1.x_u6.n772926                     1
xca.x1.x_u1.x_u6.x_u3.3                      0
xca.x1.x_u1.x_u6.x_u3.e1_int1                0
xca.x1.x_u1.n00312                           0
xca.x1.x_u1.x_u6.n772534                   4.3
xca.x1.x_u1.x_u6.n772678                     0
xca.x1.x_u1.x_u6.x_u4.3                      0
xca.x1.x_u1.x_u6.x_u4.e1_int1                0
xca.x1.x_u1.x_u6.x_u8.4                      0
xca.x1.x_u1.x_u6.x_u8.e1_int1                0
xca.x1.x_u1.n00316                           0
xca.x1.x_u1.x_u6.n772684                   4.3
xca.x1.x_u1.x_u6.x_u5.e2_int1              4.3
xca.x1.x_u1.x_u6.x_u7.vmid                1.65
xca.x1.x_u1.x_u6.x_u7.evmid_int1            1.65
xca.x1.x_u1.x_u6.x_u7.eout_int1            1.65
xca.x1.x_u1.x_u3.x_u1.evdd_new_int1               0
xca.x1.x_u1.x_u3.x_u1.evss_new_int1            1.65
xca.x1.x_u1.x_u2.n18940                    3.3
xca.x1.x_u1.x_u2.x_u5.eout_int1             3.3
xca.x1.x_u1.x_u2.n18928                    5.5
xca.x1.x_u1.x_u2.n18958                    3.3
xca.x1.x_u1.x_u2.n19230                   1.65
xca.x1.x_u1.x_u2.n19104                    3.3
xca.x1.x_u1.x_u2.x_u15.eout_int1             3.3
xca.x1.x_u1.x_u2.n19172                      1
xca.x1.x_u1.x_u2.x_u13.eout_int1             3.3
xca.x1.x_u1.x_u2.x_u17.vmid               1.65
xca.x1.x_u1.x_u2.x_u17.evmid_int1            1.65
xca.x1.x_u1.x_u2.x_u17.eout_int1               0
xca.x1.x_u1.x_u2.n19100                    3.3
xca.x1.x_u1.x_u2.x_u16.4                   3.3
xca.x1.x_u1.x_u2.x_u16.e1_int1             3.3
xca.x1.x_u1.x_u1.x_u1.evdd_new_int1             3.3
xca.x1.x_u1.x_u1.x_u1.evss_new_int1               0
nrefb                                      0.8
nsumb                                      0.5
xcb.x1.x_u1.x_u7.vmid                     1.65
xcb.x1.x_u1.x_u7.evmid_int1               1.65
xcb.x1.x_u1.v+_buff                        3.3
xcb.x1.x_u1.v-_buff                          0
xcb.x1.x_u1.x_u7.vh                     0.0035
xcb.x1.x_u1.x_u7.evh_int1               0.0035
xcb.x1.x_u1.n00366                       0.007
xcb.x1.x_u1.x_u7.innnew                 0.8035
xcb.x1.x_u1.x_u7.einnnew_int1           0.8035
xcb.x1.x_u1.n00308                           0
xcb.x1.x_u1.in-_buff                       0.8
xcb.x1.x_u1.x_u7.out                         0
xcb.x1.x_u1.x_u7.eout_int1                   0
xcb.x1.x_u1.in+_buff                       0.5
xcb.x1.x_u1.x_u4.x_u18.4                     0
xcb.x1.x_u1.x_u4.x_u18.e1_int1               0
xcb.x1.x_u1.x_u4.n24659                      0
xcb.x1.x_u1.x_u4.n24743                      0
xcb.x1.x_u1.x_u4.n24733                      0
xcb.x1.x_u1.x_u4.x_u2.eout_int1               0
xcb.x1.x_u1.x_u4.n24835                      6
xcb.x1.x_u1.x_u4.n25117                   -0.3
xcb.x1.x_u1.x_u4.x_u19.4                     0
xcb.x1.x_u1.x_u4.x_u19.e1_int1               0
xcb.x1.x_u1.x_u4.n25095                      0
xcb.x1.x_u1.x_u4.n25203                      0
xcb.x1.x_u1.x_u4.n24963                      0
xcb.x1.x_u1.x_u4.n25311                   -0.3
xcb.x1.x_u1.x_u4.x_u1.eout_int1               0
xcb.x1.x_u1.x_u4.n24639                      6
xcb.x1.x_u1.n00323                           0
xcb.x1.x_u1.x_u4.x_u20.eout_int1               0
xcb.x1.x_u1.x_u4.n25027                      1
xcb.x1.x_u1.x_u4.x_u3.eout_int1               0
xcb.x1.x_u1.x_u4.x_u17.eout_int1               0
xcb.x1.x_u1.x_u6.control                     0
xcb.x1.x_u1.x_u6.n773134              0.999717
xcb.x1.x_u1.x_u6.n773128                     1
outb                                 0.0179282
xcb.x1.x_u1.x_u6.n772690                   4.3
xcb.x1.x_u1.x_u6.mid                      1.65
xcb.x1.x_u1.x_u6.1v                          1
xcb.x1.x_u1.x_u6.x_u6.e2_int1                1
xcb.x1.x_u1.x_u6.n773122                     0
xcb.x1.x_u1.x_u6.n772926                     1
xcb.x1.x_u1.x_u6.x_u3.3                      0
xcb.x1.x_u1.x_u6.x_u3.e1_int1                0
xcb.x1.x_u1.n00312                           0
xcb.x1.x_u1.x_u6.n772534                   4.3
xcb.x1.x_u1.x_u6.n772678                     0
xcb.x1.x_u1.x_u6.x_u4.3                      0
xcb.x1.x_u1.x_u6.x_u4.e1_int1                0
xcb.x1.x_u1.x_u6.x_u8.4                      0
xcb.x1.x_u1.x_u6.x_u8.e1_int1                0
xcb.x1.x_u1.n00316                           0
xcb.x1.x_u1.x_u6.n772684                   4.3
xcb.x1.x_u1.x_u6.x_u5.e2_int1              4.3
xcb.x1.x_u1.x_u6.x_u7.vmid                1.65
xcb.x1.x_u1.x_u6.x_u7.evmid_int1            1.65
xcb.x1.x_u1.x_u6.x_u7.eout_int1            1.65
xcb.x1.x_u1.x_u3.x_u1.evdd_new_int1             0.5
xcb.x1.x_u1.x_u3.x_u1.evss_new_int1             0.8
xcb.x1.x_u1.x_u2.n18940                    3.3
xcb.x1.x_u1.x_u2.x_u5.eout_int1             3.3
xcb.x1.x_u1.x_u2.n18928                    5.5
xcb.x1.x_u1.x_u2.n18958                    3.3
xcb.x1.x_u1.x_u2.n19230                   1.65
xcb.x1.x_u1.x_u2.n19104                    3.3
xcb.x1.x_u1.x_u2.x_u15.eout_int1             3.3
xcb.x1.x_u1.x_u2.n19172                      1
xcb.x1.x_u1.x_u2.x_u13.eout_int1             3.3
xcb.x1.x_u1.x_u2.x_u17.vmid               1.65
xcb.x1.x_u1.x_u2.x_u17.evmid_int1            1.65
xcb.x1.x_u1.x_u2.x_u17.eout_int1               0
xcb.x1.x_u1.x_u2.n19100                    3.3
xcb.x1.x_u1.x_u2.x_u16.4                   3.3
xcb.x1.x_u1.x_u2.x_u16.e1_int1             3.3
xcb.x1.x_u1.x_u1.x_u1.evdd_new_int1             3.3
xcb.x1.x_u1.x_u1.x_u1.evss_new_int1               0
nrefc                                     1.65
nsumc                                        1
xcc.x1.x_u1.x_u7.vmid                     1.65
xcc.x1.x_u1.x_u7.evmid_int1               1.65
xcc.x1.x_u1.v+_buff                        3.3
xcc.x1.x_u1.v-_buff                          0
xcc.x1.x_u1.x_u7.vh                     0.0035
xcc.x1.x_u1.x_u7.evh_int1               0.0035
xcc.x1.x_u1.n00366                       0.007
xcc.x1.x_u1.x_u7.innnew                 1.6535
xcc.x1.x_u1.x_u7.einnnew_int1           1.6535
xcc.x1.x_u1.n00308                           0
xcc.x1.x_u1.in-_buff                      1.65
xcc.x1.x_u1.x_u7.out                         0
xcc.x1.x_u1.x_u7.eout_int1                   0
xcc.x1.x_u1.in+_buff                         1
xcc.x1.x_u1.x_u4.x_u18.4                     0
xcc.x1.x_u1.x_u4.x_u18.e1_int1               0
xcc.x1.x_u1.x_u4.n24659                      0
xcc.x1.x_u1.x_u4.n24743                      0
xcc.x1.x_u1.x_u4.n24733                      0
xcc.x1.x_u1.x_u4.x_u2.eout_int1               0
xcc.x1.x_u1.x_u4.n24835                      6
xcc.x1.x_u1.x_u4.n25117                   -0.3
xcc.x1.x_u1.x_u4.x_u19.4                     0
xcc.x1.x_u1.x_u4.x_u19.e1_int1               0
xcc.x1.x_u1.x_u4.n25095                      0
xcc.x1.x_u1.x_u4.n25203                      0
xcc.x1.x_u1.x_u4.n24963                      0
xcc.x1.x_u1.x_u4.n25311                   -0.3
xcc.x1.x_u1.x_u4.x_u1.eout_int1               0
xcc.x1.x_u1.x_u4.n24639                      6
xcc.x1.x_u1.n00323                           0
xcc.x1.x_u1.x_u4.x_u20.eout_int1               0
xcc.x1.x_u1.x_u4.n25027                      1
xcc.x1.x_u1.x_u4.x_u3.eout_int1               0
xcc.x1.x_u1.x_u4.x_u17.eout_int1               0
xcc.x1.x_u1.x_u6.control                     0
xcc.x1.x_u1.x_u6.n773134              0.999772
xcc.x1.x_u1.x_u6.n773128                     1
outc                                 0.0769395
xcc.x1.x_u1.x_u6.n772690                   4.3
xcc.x1.x_u1.x_u6.mid                      1.65
xcc.x1.x_u1.x_u6.1v                          1
xcc.x1.x_u1.x_u6.x_u6.e2_int1                1
xcc.x1.x_u1.x_u6.n773122                     0
xcc.x1.x_u1.x_u6.n772926                     1
xcc.x1.x_u1.x_u6.x_u3.3                      0
xcc.x1.x_u1.x_u6.x_u3.e1_int1                0
xcc.x1.x_u1.n00312                           0
xcc.x1.x_u1.x_u6.n772534                   4.3
xcc.x1.x_u1.x_u6.n772678                     0
xcc.x1.x_u1.x_u6.x_u4.3                      0
xcc.x1.x_u1.x_u6.x_u4.e1_int1                0
xcc.x1.x_u1.x_u6.x_u8.4                      0
xcc.x1.x_u1.x_u6.x_u8.e1_int1                0
xcc.x1.x_u1.n00316                           0
xcc.x1.x_u1.x_u6.n772684                   4.3
xcc.x1.x_u1.x_u6.x_u5.e2_int1              4.3
xcc.x1.x_u1.x_u6.x_u7.vmid                1.65
xcc.x1.x_u1.x_u6.x_u7.evmid_int1            1.65
xcc.x1.x_u1.x_u6.x_u7.eout_int1            1.65
xcc.x1.x_u1.x_u3.x_u1.evdd_new_int1               1
xcc.x1.x_u1.x_u3.x_u1.evss_new_int1            1.65
xcc.x1.x_u1.x_u2.n18940                    3.3
xcc.x1.x_u1.x_u2.x_u5.eout_int1             3.3
xcc.x1.x_u1.x_u2.n18928                    5.5
xcc.x1.x_u1.x_u2.n18958                    3.3
xcc.x1.x_u1.x_u2.n19230                   1.65
xcc.x1.x_u1.x_u2.n19104                    3.3
xcc.x1.x_u1.x_u2.x_u15.eout_int1             3.3
xcc.x1.x_u1.x_u2.n19172                      1
xcc.x1.x_u1.x_u2.x_u13.eout_int1             3.3
xcc.x1.x_u1.x_u2.x_u17.vmid               1.65
xcc.x1.x_u1.x_u2.x_u17.evmid_int1            1.65
xcc.x1.x_u1.x_u2.x_u17.eout_int1               0
xcc.x1.x_u1.x_u2.n19100                    3.3
xcc.x1.x_u1.x_u2.x_u16.4                   3.3
xcc.x1.x_u1.x_u2.x_u16.e1_int1             3.3
xcc.x1.x_u1.x_u1.x_u1.evdd_new_int1             3.3
xcc.x1.x_u1.x_u1.x_u1.evss_new_int1               0
nrefd                                        1
nsumd                                     1.65
xcd.x1.x_u1.x_u7.vmid                     1.65
xcd.x1.x_u1.x_u7.evmid_int1               1.65
xcd.x1.x_u1.v+_buff                        3.3
xcd.x1.x_u1.v-_buff                          0
xcd.x1.x_u1.x_u7.vh                     0.0035
xcd.x1.x_u1.x_u7.evh_int1               0.0035
xcd.x1.x_u1.n00366                       0.007
xcd.x1.x_u1.x_u7.innnew                 0.9965
xcd.x1.x_u1.x_u7.einnnew_int1           0.9965
xcd.x1.x_u1.n00308                     3.23529
xcd.x1.x_u1.in-_buff                         1
xcd.x1.x_u1.x_u7.out                       3.3
xcd.x1.x_u1.x_u7.eout_int1                 3.3
xcd.x1.x_u1.in+_buff                      1.65
xcd.x1.x_u1.x_u4.x_u18.4                     0
xcd.x1.x_u1.x_u4.x_u18.e1_int1               0
xcd.x1.x_u1.x_u4.n24659                      0
xcd.x1.x_u1.x_u4.n24743                      0
xcd.x1.x_u1.x_u4.n24733                      0
xcd.x1.x_u1.x_u4.x_u2.eout_int1               0
xcd.x1.x_u1.x_u4.n24835                      6
xcd.x1.x_u1.x_u4.n25117                   -0.3
xcd.x1.x_u1.x_u4.x_u19.4                     0
xcd.x1.x_u1.x_u4.x_u19.e1_int1               0
xcd.x1.x_u1.x_u4.n25095                      0
xcd.x1.x_u1.x_u4.n25203                      0
xcd.x1.x_u1.x_u4.n24963                      0
xcd.x1.x_u1.x_u4.n25311                   -0.3
xcd.x1.x_u1.x_u4.x_u1.eout_int1               0
xcd.x1.x_u1.x_u4.n24639                      6
xcd.x1.x_u1.n00323                           0
xcd.x1.x_u1.x_u4.x_u20.eout_int1               0
xcd.x1.x_u1.x_u4.n25027                      1
xcd.x1.x_u1.x_u4.x_u3.eout_int1               0
xcd.x1.x_u1.x_u4.x_u17.eout_int1               0
xcd.x1.x_u1.x_u6.control                     0
xcd.x1.x_u1.x_u6.n773134           3.26903e-13
xcd.x1.x_u1.x_u6.n773128                     0
outd                                   3.26803
xcd.x1.x_u1.x_u6.n772690            0.00290249
xcd.x1.x_u1.x_u6.mid                      1.65
xcd.x1.x_u1.x_u6.1v                          1
xcd.x1.x_u1.x_u6.x_u6.e2_int1                0
xcd.x1.x_u1.x_u6.n773122                     1
xcd.x1.x_u1.x_u6.n772926                     1
xcd.x1.x_u1.x_u6.x_u3.3                    4.3
xcd.x1.x_u1.x_u6.x_u3.e1_int1              4.3
xcd.x1.x_u1.n00312                     3.23529
xcd.x1.x_u1.x_u6.n772534                   4.3
xcd.x1.x_u1.x_u6.n772678                   4.3
xcd.x1.x_u1.x_u6.x_u4.3                      1
xcd.x1.x_u1.x_u6.x_u4.e1_int1                1
xcd.x1.x_u1.x_u6.x_u8.4                      0
xcd.x1.x_u1.x_u6.x_u8.e1_int1                0
xcd.x1.x_u1.n00316                           0
xcd.x1.x_u1.x_u6.n772684                     0
xcd.x1.x_u1.x_u6.x_u5.e2_int1                0
xcd.x1.x_u1.x_u6.x_u7.vmid                1.65
xcd.x1.x_u1.x_u6.x_u7.evmid_int1            1.65
xcd.x1.x_u1.x_u6.x_u7.eout_int1            1.65
xcd.x1.x_u1.x_u3.x_u1.evdd_new_int1            1.65
xcd.x1.x_u1.x_u3.x_u1.evss_new_int1               1
xcd.x1.x_u1.x_u2.n18940                    3.3
xcd.x1.x_u1.x_u2.x_u5.eout_int1             3.3
xcd.x1.x_u1.x_u2.n18928                    5.5
xcd.x1.x_u1.x_u2.n18958                    3.3
xcd.x1.x_u1.x_u2.n19230                   1.65
xcd.x1.x_u1.x_u2.n19104                    3.3
xcd.x1.x_u1.x_u2.x_u15.eout_int1             3.3
xcd.x1.x_u1.x_u2.n19172                      1
xcd.x1.x_u1.x_u2.x_u13.eout_int1             3.3
xcd.x1.x_u1.x_u2.x_u17.vmid               1.65
xcd.x1.x_u1.x_u2.x_u17.evmid_int1            1.65
xcd.x1.x_u1.x_u2.x_u17.eout_int1               0
xcd.x1.x_u1.x_u2.n19100                    3.3
xcd.x1.x_u1.x_u2.x_u16.4                   3.3
xcd.x1.x_u1.x_u2.x_u16.e1_int1             3.3
xcd.x1.x_u1.x_u1.x_u1.evdd_new_int1             3.3
xcd.x1.x_u1.x_u1.x_u1.evss_new_int1               0
nrefe                                     1.65
nsume                                      1.6
xce.x1.x_u1.x_u7.vmid                     1.65
xce.x1.x_u1.x_u7.evmid_int1               1.65
xce.x1.x_u1.v+_buff                        3.3
xce.x1.x_u1.v-_buff                          0
xce.x1.x_u1.x_u7.vh                     0.0035
xce.x1.x_u1.x_u7.evh_int1               0.0035
xce.x1.x_u1.n00366                       0.007
xce.x1.x_u1.x_u7.innnew                 1.6535
xce.x1.x_u1.x_u7.einnnew_int1           1.6535
xce.x1.x_u1.n00308                           0
xce.x1.x_u1.in-_buff                      1.65
xce.x1.x_u1.x_u7.out                         0
xce.x1.x_u1.x_u7.eout_int1                   0
xce.x1.x_u1.in+_buff                       1.6
xce.x1.x_u1.x_u4.x_u18.4                     0
xce.x1.x_u1.x_u4.x_u18.e1_int1               0
xce.x1.x_u1.x_u4.n24659                      0
xce.x1.x_u1.x_u4.n24743                      0
xce.x1.x_u1.x_u4.n24733                      0
xce.x1.x_u1.x_u4.x_u2.eout_int1               0
xce.x1.x_u1.x_u4.n24835                      6
xce.x1.x_u1.x_u4.n25117                   -0.3
xce.x1.x_u1.x_u4.x_u19.4                     0
xce.x1.x_u1.x_u4.x_u19.e1_int1               0
xce.x1.x_u1.x_u4.n25095                      0
xce.x1.x_u1.x_u4.n25203                      0
xce.x1.x_u1.x_u4.n24963                      0
xce.x1.x_u1.x_u4.n25311                   -0.3
xce.x1.x_u1.x_u4.x_u1.eout_int1               0
xce.x1.x_u1.x_u4.n24639                      6
xce.x1.x_u1.n00323                           0
xce.x1.x_u1.x_u4.x_u20.eout_int1               0
xce.x1.x_u1.x_u4.n25027                      1
xce.x1.x_u1.x_u4.x_u3.eout_int1               0
xce.x1.x_u1.x_u4.x_u17.eout_int1               0
xce.x1.x_u1.x_u6.control                     0
xce.x1.x_u1.x_u6.n773134              0.999717
xce.x1.x_u1.x_u6.n773128                     1
oute                                 0.0179282
xce.x1.x_u1.x_u6.n772690                   4.3
xce.x1.x_u1.x_u6.mid                      1.65
xce.x1.x_u1.x_u6.1v                          1
xce.x1.x_u1.x_u6.x_u6.e2_int1                1
xce.x1.x_u1.x_u6.n773122                     0
xce.x1.x_u1.x_u6.n772926                     1
xce.x1.x_u1.x_u6.x_u3.3                      0
xce.x1.x_u1.x_u6.x_u3.e1_int1                0
xce.x1.x_u1.n00312                           0
xce.x1.x_u1.x_u6.n772534                   4.3
xce.x1.x_u1.x_u6.n772678                     0
xce.x1.x_u1.x_u6.x_u4.3                      0
xce.x1.x_u1.x_u6.x_u4.e1_int1                0
xce.x1.x_u1.x_u6.x_u8.4                      0
xce.x1.x_u1.x_u6.x_u8.e1_int1                0
xce.x1.x_u1.n00316                           0
xce.x1.x_u1.x_u6.n772684                   4.3
xce.x1.x_u1.x_u6.x_u5.e2_int1              4.3
xce.x1.x_u1.x_u6.x_u7.vmid                1.65
xce.x1.x_u1.x_u6.x_u7.evmid_int1            1.65
xce.x1.x_u1.x_u6.x_u7.eout_int1            1.65
xce.x1.x_u1.x_u3.x_u1.evdd_new_int1             1.6
xce.x1.x_u1.x_u3.x_u1.evss_new_int1            1.65
xce.x1.x_u1.x_u2.n18940                    3.3
xce.x1.x_u1.x_u2.x_u5.eout_int1             3.3
xce.x1.x_u1.x_u2.n18928                    5.5
xce.x1.x_u1.x_u2.n18958                    3.3
xce.x1.x_u1.x_u2.n19230                   1.65
xce.x1.x_u1.x_u2.n19104                    3.3
xce.x1.x_u1.x_u2.x_u15.eout_int1             3.3
xce.x1.x_u1.x_u2.n19172                      1
xce.x1.x_u1.x_u2.x_u13.eout_int1             3.3
xce.x1.x_u1.x_u2.x_u17.vmid               1.65
xce.x1.x_u1.x_u2.x_u17.evmid_int1            1.65
xce.x1.x_u1.x_u2.x_u17.eout_int1               0
xce.x1.x_u1.x_u2.n19100                    3.3
xce.x1.x_u1.x_u2.x_u16.4                   3.3
xce.x1.x_u1.x_u2.x_u16.e1_int1             3.3
xce.x1.x_u1.x_u1.x_u1.evdd_new_int1             3.3
xce.x1.x_u1.x_u1.x_u1.evss_new_int1               0
nreff                                     1.65
nsumf                                     1.55
xcf.x1.x_u1.x_u7.vmid                     1.65
xcf.x1.x_u1.x_u7.evmid_int1               1.65
xcf.x1.x_u1.v+_buff                        3.3
xcf.x1.x_u1.v-_buff                          0
xcf.x1.x_u1.x_u7.vh                     0.0035
xcf.x1.x_u1.x_u7.evh_int1               0.0035
xcf.x1.x_u1.n00366                       0.007
xcf.x1.x_u1.x_u7.innnew                 1.6535
xcf.x1.x_u1.x_u7.einnnew_int1           1.6535
xcf.x1.x_u1.n00308                           0
xcf.x1.x_u1.in-_buff                      1.65
xcf.x1.x_u1.x_u7.out                         0
xcf.x1.x_u1.x_u7.eout_int1                   0
xcf.x1.x_u1.in+_buff                      1.55
xcf.x1.x_u1.x_u4.x_u18.4                     0
xcf.x1.x_u1.x_u4.x_u18.e1_int1               0
xcf.x1.x_u1.x_u4.n24659                      0
xcf.x1.x_u1.x_u4.n24743                      0
xcf.x1.x_u1.x_u4.n24733                      0
xcf.x1.x_u1.x_u4.x_u2.eout_int1               0
xcf.x1.x_u1.x_u4.n24835                      6
xcf.x1.x_u1.x_u4.n25117                   -0.3
xcf.x1.x_u1.x_u4.x_u19.4                     0
xcf.x1.x_u1.x_u4.x_u19.e1_int1               0
xcf.x1.x_u1.x_u4.n25095                      0
xcf.x1.x_u1.x_u4.n25203                      0
xcf.x1.x_u1.x_u4.n24963                      0
xcf.x1.x_u1.x_u4.n25311                   -0.3
xcf.x1.x_u1.x_u4.x_u1.eout_int1               0
xcf.x1.x_u1.x_u4.n24639                      6
xcf.x1.x_u1.n00323                           0
xcf.x1.x_u1.x_u4.x_u20.eout_int1               0
xcf.x1.x_u1.x_u4.n25027                      1
xcf.x1.x_u1.x_u4.x_u3.eout_int1               0
xcf.x1.x_u1.x_u4.x_u17.eout_int1               0
xcf.x1.x_u1.x_u6.control                     0
xcf.x1.x_u1.x_u6.n773134              0.999717
xcf.x1.x_u1.x_u6.n773128                     1
outf                                 0.0179282
xcf.x1.x_u1.x_u6.n772690                   4.3
xcf.x1.x_u1.x_u6.mid                      1.65
xcf.x1.x_u1.x_u6.1v                          1
xcf.x1.x_u1.x_u6.x_u6.e2_int1                1
xcf.x1.x_u1.x_u6.n773122                     0
xcf.x1.x_u1.x_u6.n772926                     1
xcf.x1.x_u1.x_u6.x_u3.3                      0
xcf.x1.x_u1.x_u6.x_u3.e1_int1                0
xcf.x1.x_u1.n00312                           0
xcf.x1.x_u1.x_u6.n772534                   4.3
xcf.x1.x_u1.x_u6.n772678                     0
xcf.x1.x_u1.x_u6.x_u4.3                      0
xcf.x1.x_u1.x_u6.x_u4.e1_int1                0
xcf.x1.x_u1.x_u6.x_u8.4                      0
xcf.x1.x_u1.x_u6.x_u8.e1_int1                0
xcf.x1.x_u1.n00316                           0
xcf.x1.x_u1.x_u6.n772684                   4.3
xcf.x1.x_u1.x_u6.x_u5.e2_int1              4.3
xcf.x1.x_u1.x_u6.x_u7.vmid                1.65
xcf.x1.x_u1.x_u6.x_u7.evmid_int1            1.65
xcf.x1.x_u1.x_u6.x_u7.eout_int1            1.65
xcf.x1.x_u1.x_u3.x_u1.evdd_new_int1            1.55
xcf.x1.x_u1.x_u3.x_u1.evss_new_int1            1.65
xcf.x1.x_u1.x_u2.n18940                    3.3
xcf.x1.x_u1.x_u2.x_u5.eout_int1             3.3
xcf.x1.x_u1.x_u2.n18928                    5.5
xcf.x1.x_u1.x_u2.n18958                    3.3
xcf.x1.x_u1.x_u2.n19230                   1.65
xcf.x1.x_u1.x_u2.n19104                    3.3
xcf.x1.x_u1.x_u2.x_u15.eout_int1             3.3
xcf.x1.x_u1.x_u2.n19172                      1
xcf.x1.x_u1.x_u2.x_u13.eout_int1             3.3
xcf.x1.x_u1.x_u2.x_u17.vmid               1.65
xcf.x1.x_u1.x_u2.x_u17.evmid_int1            1.65
xcf.x1.x_u1.x_u2.x_u17.eout_int1               0
xcf.x1.x_u1.x_u2.n19100                    3.3
xcf.x1.x_u1.x_u2.x_u16.4                   3.3
xcf.x1.x_u1.x_u2.x_u16.e1_int1             3.3
xcf.x1.x_u1.x_u1.x_u1.evdd_new_int1             3.3
xcf.x1.x_u1.x_u1.x_u1.evss_new_int1               0
b.xcf.x1.x_u1.x_u1.x_u1.bevss_new#branch               0
b.xcf.x1.x_u1.x_u1.x_u1.bevdd_new#branch               0
b.xcf.x1.x_u1.x_u2.x_u16.be1#branch               0
b.xcf.x1.x_u1.x_u2.x_u17.beout#branch               0
b.xcf.x1.x_u1.x_u2.x_u17.bevmid#branch               0
b.xcf.x1.x_u1.x_u2.x_u13.beout#branch               0
b.xcf.x1.x_u1.x_u2.x_u15.beout#branch               0
b.xcf.x1.x_u1.x_u2.x_u5.beout#branch               0
b.xcf.x1.x_u1.x_u3.x_u1.bevss_new#branch               0
b.xcf.x1.x_u1.x_u3.x_u1.bevdd_new#branch               0
b.xcf.x1.x_u1.x_u6.x_u7.beout#branch               0
b.xcf.x1.x_u1.x_u6.x_u7.bevmid#branch               0
b.xcf.x1.x_u1.x_u6.x_u5.be2#branch               0
b.xcf.x1.x_u1.x_u6.x_u8.be1#branch               0
b.xcf.x1.x_u1.x_u6.x_u4.be1#branch               0
b.xcf.x1.x_u1.x_u6.x_u3.be1#branch               0
b.xcf.x1.x_u1.x_u6.x_u6.be2#branch               0
b.xcf.x1.x_u1.x_u4.x_u17.beout#branch               0
b.xcf.x1.x_u1.x_u4.x_u3.beout#branch               0
b.xcf.x1.x_u1.x_u4.x_u20.beout#branch               0
b.xcf.x1.x_u1.x_u4.x_u1.beout#branch               0
b.xcf.x1.x_u1.x_u4.x_u19.be1#branch               0
b.xcf.x1.x_u1.x_u4.x_u2.beout#branch               0
b.xcf.x1.x_u1.x_u4.x_u18.be1#branch               0
b.xcf.x1.x_u1.x_u7.beout#branch               0
b.xcf.x1.x_u1.x_u7.beinnnew#branch               0
b.xcf.x1.x_u1.x_u7.bevh#branch               0
b.xcf.x1.x_u1.x_u7.bevmid#branch               0
b.xce.x1.x_u1.x_u1.x_u1.bevss_new#branch               0
b.xce.x1.x_u1.x_u1.x_u1.bevdd_new#branch               0
b.xce.x1.x_u1.x_u2.x_u16.be1#branch               0
b.xce.x1.x_u1.x_u2.x_u17.beout#branch               0
b.xce.x1.x_u1.x_u2.x_u17.bevmid#branch               0
b.xce.x1.x_u1.x_u2.x_u13.beout#branch               0
b.xce.x1.x_u1.x_u2.x_u15.beout#branch               0
b.xce.x1.x_u1.x_u2.x_u5.beout#branch               0
b.xce.x1.x_u1.x_u3.x_u1.bevss_new#branch               0
b.xce.x1.x_u1.x_u3.x_u1.bevdd_new#branch               0
b.xce.x1.x_u1.x_u6.x_u7.beout#branch               0
b.xce.x1.x_u1.x_u6.x_u7.bevmid#branch               0
b.xce.x1.x_u1.x_u6.x_u5.be2#branch               0
b.xce.x1.x_u1.x_u6.x_u8.be1#branch               0
b.xce.x1.x_u1.x_u6.x_u4.be1#branch               0
b.xce.x1.x_u1.x_u6.x_u3.be1#branch               0
b.xce.x1.x_u1.x_u6.x_u6.be2#branch               0
b.xce.x1.x_u1.x_u4.x_u17.beout#branch               0
b.xce.x1.x_u1.x_u4.x_u3.beout#branch               0
b.xce.x1.x_u1.x_u4.x_u20.beout#branch               0
b.xce.x1.x_u1.x_u4.x_u1.beout#branch               0
b.xce.x1.x_u1.x_u4.x_u19.be1#branch               0
b.xce.x1.x_u1.x_u4.x_u2.beout#branch               0
b.xce.x1.x_u1.x_u4.x_u18.be1#branch               0
b.xce.x1.x_u1.x_u7.beout#branch               0
b.xce.x1.x_u1.x_u7.beinnnew#branch               0
b.xce.x1.x_u1.x_u7.bevh#branch               0
b.xce.x1.x_u1.x_u7.bevmid#branch               0
b.xcd.x1.x_u1.x_u1.x_u1.bevss_new#branch               0
b.xcd.x1.x_u1.x_u1.x_u1.bevdd_new#branch               0
b.xcd.x1.x_u1.x_u2.x_u16.be1#branch               0
b.xcd.x1.x_u1.x_u2.x_u17.beout#branch               0
b.xcd.x1.x_u1.x_u2.x_u17.bevmid#branch               0
b.xcd.x1.x_u1.x_u2.x_u13.beout#branch               0
b.xcd.x1.x_u1.x_u2.x_u15.beout#branch               0
b.xcd.x1.x_u1.x_u2.x_u5.beout#branch               0
b.xcd.x1.x_u1.x_u3.x_u1.bevss_new#branch               0
b.xcd.x1.x_u1.x_u3.x_u1.bevdd_new#branch               0
b.xcd.x1.x_u1.x_u6.x_u7.beout#branch               0
b.xcd.x1.x_u1.x_u6.x_u7.bevmid#branch               0
b.xcd.x1.x_u1.x_u6.x_u5.be2#branch               0
b.xcd.x1.x_u1.x_u6.x_u8.be1#branch               0
b.xcd.x1.x_u1.x_u6.x_u4.be1#branch               0
b.xcd.x1.x_u1.x_u6.x_u3.be1#branch               0
b.xcd.x1.x_u1.x_u6.x_u6.be2#branch               0
b.xcd.x1.x_u1.x_u4.x_u17.beout#branch               0
b.xcd.x1.x_u1.x_u4.x_u3.beout#branch               0
b.xcd.x1.x_u1.x_u4.x_u20.beout#branch               0
b.xcd.x1.x_u1.x_u4.x_u1.beout#branch               0
b.xcd.x1.x_u1.x_u4.x_u19.be1#branch               0
b.xcd.x1.x_u1.x_u4.x_u2.beout#branch               0
b.xcd.x1.x_u1.x_u4.x_u18.be1#branch               0
b.xcd.x1.x_u1.x_u7.beout#branch               0
b.xcd.x1.x_u1.x_u7.beinnnew#branch               0
b.xcd.x1.x_u1.x_u7.bevh#branch               0
b.xcd.x1.x_u1.x_u7.bevmid#branch               0
b.xcc.x1.x_u1.x_u1.x_u1.bevss_new#branch               0
b.xcc.x1.x_u1.x_u1.x_u1.bevdd_new#branch               0
b.xcc.x1.x_u1.x_u2.x_u16.be1#branch               0
b.xcc.x1.x_u1.x_u2.x_u17.beout#branch               0
b.xcc.x1.x_u1.x_u2.x_u17.bevmid#branch               0
b.xcc.x1.x_u1.x_u2.x_u13.beout#branch               0
b.xcc.x1.x_u1.x_u2.x_u15.beout#branch               0
b.xcc.x1.x_u1.x_u2.x_u5.beout#branch               0
b.xcc.x1.x_u1.x_u3.x_u1.bevss_new#branch               0
b.xcc.x1.x_u1.x_u3.x_u1.bevdd_new#branch               0
b.xcc.x1.x_u1.x_u6.x_u7.beout#branch               0
b.xcc.x1.x_u1.x_u6.x_u7.bevmid#branch               0
b.xcc.x1.x_u1.x_u6.x_u5.be2#branch               0
b.xcc.x1.x_u1.x_u6.x_u8.be1#branch               0
b.xcc.x1.x_u1.x_u6.x_u4.be1#branch               0
b.xcc.x1.x_u1.x_u6.x_u3.be1#branch               0
b.xcc.x1.x_u1.x_u6.x_u6.be2#branch               0
b.xcc.x1.x_u1.x_u4.x_u17.beout#branch               0
b.xcc.x1.x_u1.x_u4.x_u3.beout#branch               0
b.xcc.x1.x_u1.x_u4.x_u20.beout#branch               0
b.xcc.x1.x_u1.x_u4.x_u1.beout#branch               0
b.xcc.x1.x_u1.x_u4.x_u19.be1#branch               0
b.xcc.x1.x_u1.x_u4.x_u2.beout#branch               0
b.xcc.x1.x_u1.x_u4.x_u18.be1#branch               0
b.xcc.x1.x_u1.x_u7.beout#branch               0
b.xcc.x1.x_u1.x_u7.beinnnew#branch               0
b.xcc.x1.x_u1.x_u7.bevh#branch               0
b.xcc.x1.x_u1.x_u7.bevmid#branch               0
b.xcb.x1.x_u1.x_u1.x_u1.bevss_new#branch               0
b.xcb.x1.x_u1.x_u1.x_u1.bevdd_new#branch               0
b.xcb.x1.x_u1.x_u2.x_u16.be1#branch               0
b.xcb.x1.x_u1.x_u2.x_u17.beout#branch               0
b.xcb.x1.x_u1.x_u2.x_u17.bevmid#branch               0
b.xcb.x1.x_u1.x_u2.x_u13.beout#branch               0
b.xcb.x1.x_u1.x_u2.x_u15.beout#branch               0
b.xcb.x1.x_u1.x_u2.x_u5.beout#branch               0
b.xcb.x1.x_u1.x_u3.x_u1.bevss_new#branch               0
b.xcb.x1.x_u1.x_u3.x_u1.bevdd_new#branch               0
b.xcb.x1.x_u1.x_u6.x_u7.beout#branch               0
b.xcb.x1.x_u1.x_u6.x_u7.bevmid#branch               0
b.xcb.x1.x_u1.x_u6.x_u5.be2#branch               0
b.xcb.x1.x_u1.x_u6.x_u8.be1#branch               0
b.xcb.x1.x_u1.x_u6.x_u4.be1#branch               0
b.xcb.x1.x_u1.x_u6.x_u3.be1#branch               0
b.xcb.x1.x_u1.x_u6.x_u6.be2#branch               0
b.xcb.x1.x_u1.x_u4.x_u17.beout#branch               0
b.xcb.x1.x_u1.x_u4.x_u3.beout#branch               0
b.xcb.x1.x_u1.x_u4.x_u20.beout#branch               0
b.xcb.x1.x_u1.x_u4.x_u1.beout#branch               0
b.xcb.x1.x_u1.x_u4.x_u19.be1#branch               0
b.xcb.x1.x_u1.x_u4.x_u2.beout#branch               0
b.xcb.x1.x_u1.x_u4.x_u18.be1#branch               0
b.xcb.x1.x_u1.x_u7.beout#branch               0
b.xcb.x1.x_u1.x_u7.beinnnew#branch               0
b.xcb.x1.x_u1.x_u7.bevh#branch               0
b.xcb.x1.x_u1.x_u7.bevmid#branch               0
b.xca.x1.x_u1.x_u1.x_u1.bevss_new#branch               0
b.xca.x1.x_u1.x_u1.x_u1.bevdd_new#branch               0
b.xca.x1.x_u1.x_u2.x_u16.be1#branch               0
b.xca.x1.x_u1.x_u2.x_u17.beout#branch               0
b.xca.x1.x_u1.x_u2.x_u17.bevmid#branch               0
b.xca.x1.x_u1.x_u2.x_u13.beout#branch               0
b.xca.x1.x_u1.x_u2.x_u15.beout#branch               0
b.xca.x1.x_u1.x_u2.x_u5.beout#branch               0
b.xca.x1.x_u1.x_u3.x_u1.bevss_new#branch               0
b.xca.x1.x_u1.x_u3.x_u1.bevdd_new#branch               0
b.xca.x1.x_u1.x_u6.x_u7.beout#branch               0
b.xca.x1.x_u1.x_u6.x_u7.bevmid#branch               0
b.xca.x1.x_u1.x_u6.x_u5.be2#branch               0
b.xca.x1.x_u1.x_u6.x_u8.be1#branch               0
b.xca.x1.x_u1.x_u6.x_u4.be1#branch               0
b.xca.x1.x_u1.x_u6.x_u3.be1#branch               0
b.xca.x1.x_u1.x_u6.x_u6.be2#branch               0
b.xca.x1.x_u1.x_u4.x_u17.beout#branch               0
b.xca.x1.x_u1.x_u4.x_u3.beout#branch               0
b.xca.x1.x_u1.x_u4.x_u20.beout#branch               0
b.xca.x1.x_u1.x_u4.x_u1.beout#branch               0
b.xca.x1.x_u1.x_u4.x_u19.be1#branch               0
b.xca.x1.x_u1.x_u4.x_u2.beout#branch               0
b.xca.x1.x_u1.x_u4.x_u18.be1#branch               0
b.xca.x1.x_u1.x_u7.beout#branch               0
b.xca.x1.x_u1.x_u7.beinnnew#branch               0
b.xca.x1.x_u1.x_u7.bevh#branch               0
b.xca.x1.x_u1.x_u7.bevmid#branch               0
e.xcf.x1.x_u1.x_u1.x_u1.evss_new#branch         3.90028
e.xcf.x1.x_u1.x_u1.x_u1.evdd_new#branch     1.00001e-13
e.xcf.x1.x_u1.x_u2.x_u16.e1#branch               0
e.xcf.x1.x_u1.x_u2.x_u17.eout#branch               0
e.xcf.x1.x_u1.x_u2.x_u17.evmid#branch               0
e.xcf.x1.x_u1.x_u2.x_u13.eout#branch            -3.3
e.xcf.x1.x_u1.x_u2.x_u15.eout#branch           -1.65
e.xcf.x1.x_u1.x_u2.x_u5.eout#branch               0
e.xcf.x1.x_u1.x_u3.x_u1.evss_new#branch           -1.65
e.xcf.x1.x_u1.x_u3.x_u1.evdd_new#branch           -1.55
e.xcf.x1.x_u1.x_u6.x_u7.eout#branch    -1.63207e-12
e.xcf.x1.x_u1.x_u6.x_u7.evmid#branch               0
e.xcf.x1.x_u1.x_u6.x_u5.e2#branch    -9.58345e-13
e.xcf.x1.x_u1.x_u6.x_u8.e1#branch               0
e.xcf.x1.x_u1.x_u6.x_u4.e1#branch               0
e.xcf.x1.x_u1.x_u6.x_u3.e1#branch               0
e.xcf.x1.x_u1.x_u6.x_u6.e2#branch    -0.000283181
e.xcf.x1.x_u1.x_u4.x_u17.eout#branch            -0.3
e.xcf.x1.x_u1.x_u4.x_u3.eout#branch            -0.3
e.xcf.x1.x_u1.x_u4.x_u20.eout#branch               0
e.xcf.x1.x_u1.x_u4.x_u1.eout#branch            1.55
e.xcf.x1.x_u1.x_u4.x_u19.e1#branch               0
e.xcf.x1.x_u1.x_u4.x_u2.eout#branch            1.65
e.xcf.x1.x_u1.x_u4.x_u18.e1#branch               0
e.xcf.x1.x_u1.x_u7.eout#branch               0
e.xcf.x1.x_u1.x_u7.einnnew#branch               0
e.xcf.x1.x_u1.x_u7.evh#branch                0
e.xcf.x1.x_u1.x_u7.evmid#branch               0
e.xce.x1.x_u1.x_u1.x_u1.evss_new#branch         3.90028
e.xce.x1.x_u1.x_u1.x_u1.evdd_new#branch     1.00001e-13
e.xce.x1.x_u1.x_u2.x_u16.e1#branch               0
e.xce.x1.x_u1.x_u2.x_u17.eout#branch               0
e.xce.x1.x_u1.x_u2.x_u17.evmid#branch               0
e.xce.x1.x_u1.x_u2.x_u13.eout#branch            -3.3
e.xce.x1.x_u1.x_u2.x_u15.eout#branch           -1.65
e.xce.x1.x_u1.x_u2.x_u5.eout#branch               0
e.xce.x1.x_u1.x_u3.x_u1.evss_new#branch           -1.65
e.xce.x1.x_u1.x_u3.x_u1.evdd_new#branch            -1.6
e.xce.x1.x_u1.x_u6.x_u7.eout#branch    -1.63207e-12
e.xce.x1.x_u1.x_u6.x_u7.evmid#branch               0
e.xce.x1.x_u1.x_u6.x_u5.e2#branch    -9.58345e-13
e.xce.x1.x_u1.x_u6.x_u8.e1#branch               0
e.xce.x1.x_u1.x_u6.x_u4.e1#branch               0
e.xce.x1.x_u1.x_u6.x_u3.e1#branch               0
e.xce.x1.x_u1.x_u6.x_u6.e2#branch    -0.000283181
e.xce.x1.x_u1.x_u4.x_u17.eout#branch            -0.3
e.xce.x1.x_u1.x_u4.x_u3.eout#branch            -0.3
e.xce.x1.x_u1.x_u4.x_u20.eout#branch               0
e.xce.x1.x_u1.x_u4.x_u1.eout#branch             1.6
e.xce.x1.x_u1.x_u4.x_u19.e1#branch               0
e.xce.x1.x_u1.x_u4.x_u2.eout#branch            1.65
e.xce.x1.x_u1.x_u4.x_u18.e1#branch               0
e.xce.x1.x_u1.x_u7.eout#branch               0
e.xce.x1.x_u1.x_u7.einnnew#branch               0
e.xce.x1.x_u1.x_u7.evh#branch                0
e.xce.x1.x_u1.x_u7.evmid#branch               0
e.xcd.x1.x_u1.x_u1.x_u1.evss_new#branch             3.9
e.xcd.x1.x_u1.x_u1.x_u1.evdd_new#branch     -0.00590249
e.xcd.x1.x_u1.x_u2.x_u16.e1#branch               0
e.xcd.x1.x_u1.x_u2.x_u17.eout#branch               0
e.xcd.x1.x_u1.x_u2.x_u17.evmid#branch               0
e.xcd.x1.x_u1.x_u2.x_u13.eout#branch            -3.3
e.xcd.x1.x_u1.x_u2.x_u15.eout#branch           -1.65
e.xcd.x1.x_u1.x_u2.x_u5.eout#branch               0
e.xcd.x1.x_u1.x_u3.x_u1.evss_new#branch              -1
e.xcd.x1.x_u1.x_u3.x_u1.evdd_new#branch           -1.65
e.xcd.x1.x_u1.x_u6.x_u7.eout#branch     1.61803e-12
e.xcd.x1.x_u1.x_u6.x_u7.evmid#branch               0
e.xcd.x1.x_u1.x_u6.x_u5.e2#branch      0.00290249
e.xcd.x1.x_u1.x_u6.x_u8.e1#branch               0
e.xcd.x1.x_u1.x_u6.x_u4.e1#branch               0
e.xcd.x1.x_u1.x_u6.x_u3.e1#branch               0
e.xcd.x1.x_u1.x_u6.x_u6.e2#branch     3.26903e-13
e.xcd.x1.x_u1.x_u4.x_u17.eout#branch            -0.3
e.xcd.x1.x_u1.x_u4.x_u3.eout#branch            -0.3
e.xcd.x1.x_u1.x_u4.x_u20.eout#branch               0
e.xcd.x1.x_u1.x_u4.x_u1.eout#branch            1.65
e.xcd.x1.x_u1.x_u4.x_u19.e1#branch               0
e.xcd.x1.x_u1.x_u4.x_u2.eout#branch               1
e.xcd.x1.x_u1.x_u4.x_u18.e1#branch               0
e.xcd.x1.x_u1.x_u7.eout#branch      -0.0647059
e.xcd.x1.x_u1.x_u7.einnnew#branch               0
e.xcd.x1.x_u1.x_u7.evh#branch                0
e.xcd.x1.x_u1.x_u7.evmid#branch               0
e.xcc.x1.x_u1.x_u1.x_u1.evss_new#branch         3.90323
e.xcc.x1.x_u1.x_u1.x_u1.evdd_new#branch     1.00001e-13
e.xcc.x1.x_u1.x_u2.x_u16.e1#branch               0
e.xcc.x1.x_u1.x_u2.x_u17.eout#branch               0
e.xcc.x1.x_u1.x_u2.x_u17.evmid#branch               0
e.xcc.x1.x_u1.x_u2.x_u13.eout#branch            -3.3
e.xcc.x1.x_u1.x_u2.x_u15.eout#branch           -1.65
e.xcc.x1.x_u1.x_u2.x_u5.eout#branch               0
e.xcc.x1.x_u1.x_u3.x_u1.evss_new#branch           -1.65
e.xcc.x1.x_u1.x_u3.x_u1.evdd_new#branch              -1
e.xcc.x1.x_u1.x_u6.x_u7.eout#branch    -1.57306e-12
e.xcc.x1.x_u1.x_u6.x_u7.evmid#branch               0
e.xcc.x1.x_u1.x_u6.x_u5.e2#branch    -9.52127e-13
e.xcc.x1.x_u1.x_u6.x_u8.e1#branch               0
e.xcc.x1.x_u1.x_u6.x_u4.e1#branch               0
e.xcc.x1.x_u1.x_u6.x_u3.e1#branch               0
e.xcc.x1.x_u1.x_u6.x_u6.e2#branch    -0.000228206
e.xcc.x1.x_u1.x_u4.x_u17.eout#branch            -0.3
e.xcc.x1.x_u1.x_u4.x_u3.eout#branch            -0.3
e.xcc.x1.x_u1.x_u4.x_u20.eout#branch               0
e.xcc.x1.x_u1.x_u4.x_u1.eout#branch               1
e.xcc.x1.x_u1.x_u4.x_u19.e1#branch               0
e.xcc.x1.x_u1.x_u4.x_u2.eout#branch            1.65
e.xcc.x1.x_u1.x_u4.x_u18.e1#branch               0
e.xcc.x1.x_u1.x_u7.eout#branch               0
e.xcc.x1.x_u1.x_u7.einnnew#branch               0
e.xcc.x1.x_u1.x_u7.evh#branch                0
e.xcc.x1.x_u1.x_u7.evmid#branch               0
e.xcb.x1.x_u1.x_u1.x_u1.evss_new#branch         3.90028
e.xcb.x1.x_u1.x_u1.x_u1.evdd_new#branch     1.00001e-13
e.xcb.x1.x_u1.x_u2.x_u16.e1#branch               0
e.xcb.x1.x_u1.x_u2.x_u17.eout#branch               0
e.xcb.x1.x_u1.x_u2.x_u17.evmid#branch               0
e.xcb.x1.x_u1.x_u2.x_u13.eout#branch            -3.3
e.xcb.x1.x_u1.x_u2.x_u15.eout#branch           -1.65
e.xcb.x1.x_u1.x_u2.x_u5.eout#branch               0
e.xcb.x1.x_u1.x_u3.x_u1.evss_new#branch            -0.8
e.xcb.x1.x_u1.x_u3.x_u1.evdd_new#branch            -0.5
e.xcb.x1.x_u1.x_u6.x_u7.eout#branch    -1.63207e-12
e.xcb.x1.x_u1.x_u6.x_u7.evmid#branch               0
e.xcb.x1.x_u1.x_u6.x_u5.e2#branch    -9.58345e-13
e.xcb.x1.x_u1.x_u6.x_u8.e1#branch               0
e.xcb.x1.x_u1.x_u6.x_u4.e1#branch               0
e.xcb.x1.x_u1.x_u6.x_u3.e1#branch               0
e.xcb.x1.x_u1.x_u6.x_u6.e2#branch    -0.000283181
e.xcb.x1.x_u1.x_u4.x_u17.eout#branch            -0.3
e.xcb.x1.x_u1.x_u4.x_u3.eout#branch            -0.3
e.xcb.x1.x_u1.x_u4.x_u20.eout#branch               0
e.xcb.x1.x_u1.x_u4.x_u1.eout#branch             0.5
e.xcb.x1.x_u1.x_u4.x_u19.e1#branch               0
e.xcb.x1.x_u1.x_u4.x_u2.eout#branch             0.8
e.xcb.x1.x_u1.x_u4.x_u18.e1#branch               0
e.xcb.x1.x_u1.x_u7.eout#branch               0
e.xcb.x1.x_u1.x_u7.einnnew#branch               0
e.xcb.x1.x_u1.x_u7.evh#branch                0
e.xcb.x1.x_u1.x_u7.evmid#branch               0
e.xca.x1.x_u1.x_u1.x_u1.evss_new#branch         3.90028
e.xca.x1.x_u1.x_u1.x_u1.evdd_new#branch     1.00001e-13
e.xca.x1.x_u1.x_u2.x_u16.e1#branch               0
e.xca.x1.x_u1.x_u2.x_u17.eout#branch               0
e.xca.x1.x_u1.x_u2.x_u17.evmid#branch               0
e.xca.x1.x_u1.x_u2.x_u13.eout#branch            -3.3
e.xca.x1.x_u1.x_u2.x_u15.eout#branch           -1.65
e.xca.x1.x_u1.x_u2.x_u5.eout#branch               0
e.xca.x1.x_u1.x_u3.x_u1.evss_new#branch           -1.65
e.xca.x1.x_u1.x_u3.x_u1.evdd_new#branch               0
e.xca.x1.x_u1.x_u6.x_u7.eout#branch    -1.63207e-12
e.xca.x1.x_u1.x_u6.x_u7.evmid#branch               0
e.xca.x1.x_u1.x_u6.x_u5.e2#branch    -9.58345e-13
e.xca.x1.x_u1.x_u6.x_u8.e1#branch               0
e.xca.x1.x_u1.x_u6.x_u4.e1#branch               0
e.xca.x1.x_u1.x_u6.x_u3.e1#branch               0
e.xca.x1.x_u1.x_u6.x_u6.e2#branch    -0.000283181
e.xca.x1.x_u1.x_u4.x_u17.eout#branch            -0.3
e.xca.x1.x_u1.x_u4.x_u3.eout#branch            -0.3
e.xca.x1.x_u1.x_u4.x_u20.eout#branch               0
e.xca.x1.x_u1.x_u4.x_u1.eout#branch               0
e.xca.x1.x_u1.x_u4.x_u19.e1#branch               0
e.xca.x1.x_u1.x_u4.x_u2.eout#branch            1.65
e.xca.x1.x_u1.x_u4.x_u18.e1#branch               0
e.xca.x1.x_u1.x_u7.eout#branch               0
e.xca.x1.x_u1.x_u7.einnnew#branch               0
e.xca.x1.x_u1.x_u7.evh#branch                0
e.xca.x1.x_u1.x_u7.evmid#branch               0
v.xcf.x1.x_u1.v_v1#branch                    0
v.xcf.x1.x_u1.x_u2.v_v1#branch               0
v.xcf.x1.x_u1.x_u2.v_v5#branch               0
v.xcf.x1.x_u1.x_u2.v_v4#branch            1.65
v.xcf.x1.x_u1.x_u6.v_v1#branch               0
v.xcf.x1.x_u1.x_u6.v_v2#branch               0
v.xcf.x1.x_u1.x_u6.v_v3#branch               0
v.xcf.x1.x_u1.x_u4.v_v2#branch               0
v.xcf.x1.x_u1.x_u4.v_v5#branch               0
v.xcf.x1.x_u1.x_u4.v_v1#branch               0
v.xcf.x1.x_u1.x_u4.v_v4#branch             0.3
v.xcf.x1.x_u1.x_u4.v_v3#branch             0.3
vsumf#branch                            -2e-12
vreff#branch                            -2e-12
v.xce.x1.x_u1.v_v1#branch                    0
v.xce.x1.x_u1.x_u2.v_v1#branch               0
v.xce.x1.x_u1.x_u2.v_v5#branch               0
v.xce.x1.x_u1.x_u2.v_v4#branch            1.65
v.xce.x1.x_u1.x_u6.v_v1#branch               0
v.xce.x1.x_u1.x_u6.v_v2#branch               0
v.xce.x1.x_u1.x_u6.v_v3#branch               0
v.xce.x1.x_u1.x_u4.v_v2#branch               0
v.xce.x1.x_u1.x_u4.v_v5#branch               0
v.xce.x1.x_u1.x_u4.v_v1#branch               0
v.xce.x1.x_u1.x_u4.v_v4#branch             0.3
v.xce.x1.x_u1.x_u4.v_v3#branch             0.3
vsume#branch                            -2e-12
vrefe#branch                            -2e-12
v.xcd.x1.x_u1.v_v1#branch                    0
v.xcd.x1.x_u1.x_u2.v_v1#branch               0
v.xcd.x1.x_u1.x_u2.v_v5#branch               0
v.xcd.x1.x_u1.x_u2.v_v4#branch            1.65
v.xcd.x1.x_u1.x_u6.v_v1#branch               0
v.xcd.x1.x_u1.x_u6.v_v2#branch               0
v.xcd.x1.x_u1.x_u6.v_v3#branch               0
v.xcd.x1.x_u1.x_u4.v_v2#branch               0
v.xcd.x1.x_u1.x_u4.v_v5#branch               0
v.xcd.x1.x_u1.x_u4.v_v1#branch               0
v.xcd.x1.x_u1.x_u4.v_v4#branch             0.3
v.xcd.x1.x_u1.x_u4.v_v3#branch             0.3
vsumd#branch                            -2e-12
vrefd#branch                            -2e-12
v.xcc.x1.x_u1.v_v1#branch                    0
v.xcc.x1.x_u1.x_u2.v_v1#branch               0
v.xcc.x1.x_u1.x_u2.v_v5#branch               0
v.xcc.x1.x_u1.x_u2.v_v4#branch            1.65
v.xcc.x1.x_u1.x_u6.v_v1#branch               0
v.xcc.x1.x_u1.x_u6.v_v2#branch               0
v.xcc.x1.x_u1.x_u6.v_v3#branch               0
v.xcc.x1.x_u1.x_u4.v_v2#branch               0
v.xcc.x1.x_u1.x_u4.v_v5#branch               0
v.xcc.x1.x_u1.x_u4.v_v1#branch               0
v.xcc.x1.x_u1.x_u4.v_v4#branch             0.3
v.xcc.x1.x_u1.x_u4.v_v3#branch             0.3
vsumc#branch                            -2e-12
vrefc#branch                            -2e-12
v.xcb.x1.x_u1.v_v1#branch                    0
v.xcb.x1.x_u1.x_u2.v_v1#branch               0
v.xcb.x1.x_u1.x_u2.v_v5#branch               0
v.xcb.x1.x_u1.x_u2.v_v4#branch            1.65
v.xcb.x1.x_u1.x_u6.v_v1#branch               0
v.xcb.x1.x_u1.x_u6.v_v2#branch               0
v.xcb.x1.x_u1.x_u6.v_v3#branch               0
v.xcb.x1.x_u1.x_u4.v_v2#branch               0
v.xcb.x1.x_u1.x_u4.v_v5#branch               0
v.xcb.x1.x_u1.x_u4.v_v1#branch               0
v.xcb.x1.x_u1.x_u4.v_v4#branch             0.3
v.xcb.x1.x_u1.x_u4.v_v3#branch             0.3
vsumb#branch                            -2e-12
vrefb#branch                            -2e-12
v.xca.x1.x_u1.v_v1#branch                    0
v.xca.x1.x_u1.x_u2.v_v1#branch               0
v.xca.x1.x_u1.x_u2.v_v5#branch               0
v.xca.x1.x_u1.x_u2.v_v4#branch            1.65
v.xca.x1.x_u1.x_u6.v_v1#branch               0
v.xca.x1.x_u1.x_u6.v_v2#branch               0
v.xca.x1.x_u1.x_u6.v_v3#branch               0
v.xca.x1.x_u1.x_u4.v_v2#branch               0
v.xca.x1.x_u1.x_u4.v_v5#branch               0
v.xca.x1.x_u1.x_u4.v_v1#branch               0
v.xca.x1.x_u1.x_u4.v_v4#branch             0.3
v.xca.x1.x_u1.x_u4.v_v3#branch             0.3
vsuma#branch                            -2e-12
vrefa#branch                            -2e-12
vdd#branch                           -2.01e-06

 Reference value :  1.00050e-05 Reference value :  2.53006e-04 Reference value :  4.93012e-04 Reference value :  7.65037e-04 Reference value :  1.06131e-03 Reference value :  1.33601e-03 Reference value :  1.60302e-03 Reference value :  1.90001e-03 Reference value :  2.14291e-03 Reference value :  2.38302e-03 Reference value :  2.62001e-03 Reference value :  2.86301e-03 Reference value :  3.10302e-03 Reference value :  3.34302e-03 Reference value :  3.61000e-03 Reference value :  3.85001e-03 Reference value :  4.09301e-03 Reference value :  4.33301e-03 Reference value :  4.57301e-03 Reference value :  4.78504e-03 Reference value :  5.05000e-03 Reference value :  5.29001e-03 Reference value :  5.50301e-03 Reference value :  5.74301e-03 Reference value :  5.98301e-03 Reference value :  6.22301e-03 Reference value :  6.46301e-03 Reference value :  6.70301e-03 Reference value :  6.94301e-03 Reference value :  7.18301e-03 Reference value :  7.42301e-03 Reference value :  7.66301e-03 Reference value :  7.90302e-03 Reference value :  8.17431e-03 Reference value :  8.47001e-03 Reference value :  8.74302e-03 Reference value :  9.01600e-03 Reference value :  9.31300e-03 Reference value :  9.58006e-03 Reference value :  9.85301e-03 Reference value :  1.00960e-02 Reference value :  1.03900e-02 Reference value :  1.06600e-02 Reference value :  1.09330e-02 Reference value :  1.12030e-02 Reference value :  1.14760e-02 Reference value :  1.17429e-02 Reference value :  1.20130e-02 Reference value :  1.22831e-02 Reference value :  1.25830e-02 Reference value :  1.28531e-02 Reference value :  1.31500e-02 Reference value :  1.33960e-02 Reference value :  1.36630e-02 Reference value :  1.39360e-02 Reference value :  1.42300e-02 Reference value :  1.45000e-02 Reference value :  1.47730e-02 Reference value :  1.50430e-02 Reference value :  1.53132e-02 Reference value :  1.55200e-02 Reference value :  1.57613e-02 Reference value :  1.60030e-02 Reference value :  1.62430e-02 Reference value :  1.64830e-02 Reference value :  1.67230e-02 Reference value :  1.69630e-02 Reference value :  1.72109e-02 Reference value :  1.74700e-02 Reference value :  1.77100e-02 Reference value :  1.79500e-02 Reference value :  1.81930e-02 Reference value :  1.84330e-02 Reference value :  1.86730e-02 Reference value :  1.89130e-02 Reference value :  1.91530e-02 Reference value :  1.93930e-02 Reference value :  1.96330e-02 Reference value :  1.98730e-02
No. of Data Rows : 143444
t_rise              =  5.352940e-03
Note: vsumf: dc value used for op instead of transient time=0 value.
Note: vsume: dc value used for op instead of transient time=0 value.
t_fall              =  1.535026e-02
  rising  trip = 1.65353 V
  falling trip = 1.6465 V
  >>> Hysteresis = 0.007032 V
  >>> [model hard-codes 7 mV; datasheet 10 mV typ, 3 min, 25 max]

===================================================================
TB10 (E) PROPAGATION DELAY, 100 mV overdrive, CL = 15 pF
===================================================================
Reducing trtol to 1 for xspice 'A' devices
Doing analysis at TEMP = 27.000000 and TNOM = 27.000000

Using SPARSE 1.3 as Direct Linear Solver

Initial Transient Solution
--------------------------

Node                                   Voltage
----                                   -------
vdd                                        3.3
nrefa                                     1.65
nsuma                                        0
xca.x1.x_u1.x_u7.vmid                     1.65
xca.x1.x_u1.x_u7.evmid_int1               1.65
xca.x1.x_u1.v+_buff                        3.3
xca.x1.x_u1.v-_buff                          0
xca.x1.x_u1.x_u7.vh                     0.0035
xca.x1.x_u1.x_u7.evh_int1               0.0035
xca.x1.x_u1.n00366                       0.007
xca.x1.x_u1.x_u7.innnew                 1.6535
xca.x1.x_u1.x_u7.einnnew_int1           1.6535
xca.x1.x_u1.n00308                           0
xca.x1.x_u1.in-_buff                      1.65
xca.x1.x_u1.x_u7.out                         0
xca.x1.x_u1.x_u7.eout_int1                   0
xca.x1.x_u1.in+_buff                         0
xca.x1.x_u1.x_u4.x_u18.4                     0
xca.x1.x_u1.x_u4.x_u18.e1_int1               0
xca.x1.x_u1.x_u4.n24659                      0
xca.x1.x_u1.x_u4.n24743                      0
xca.x1.x_u1.x_u4.n24733                      0
xca.x1.x_u1.x_u4.x_u2.eout_int1               0
xca.x1.x_u1.x_u4.n24835                      6
xca.x1.x_u1.x_u4.n25117                   -0.3
xca.x1.x_u1.x_u4.x_u19.4                     0
xca.x1.x_u1.x_u4.x_u19.e1_int1               0
xca.x1.x_u1.x_u4.n25095                      0
xca.x1.x_u1.x_u4.n25203                      0
xca.x1.x_u1.x_u4.n24963                      0
xca.x1.x_u1.x_u4.n25311                   -0.3
xca.x1.x_u1.x_u4.x_u1.eout_int1               0
xca.x1.x_u1.x_u4.n24639                      6
xca.x1.x_u1.n00323                           0
xca.x1.x_u1.x_u4.x_u20.eout_int1               0
xca.x1.x_u1.x_u4.n25027                      1
xca.x1.x_u1.x_u4.x_u3.eout_int1               0
xca.x1.x_u1.x_u4.x_u17.eout_int1               0
xca.x1.x_u1.x_u6.control                     0
xca.x1.x_u1.x_u6.n773134              0.999717
xca.x1.x_u1.x_u6.n773128                     1
outa                                 0.0179282
xca.x1.x_u1.x_u6.n772690                   4.3
xca.x1.x_u1.x_u6.mid                      1.65
xca.x1.x_u1.x_u6.1v                          1
xca.x1.x_u1.x_u6.x_u6.e2_int1                1
xca.x1.x_u1.x_u6.n773122                     0
xca.x1.x_u1.x_u6.n772926                     1
xca.x1.x_u1.x_u6.x_u3.3                      0
xca.x1.x_u1.x_u6.x_u3.e1_int1                0
xca.x1.x_u1.n00312                           0
xca.x1.x_u1.x_u6.n772534                   4.3
xca.x1.x_u1.x_u6.n772678                     0
xca.x1.x_u1.x_u6.x_u4.3                      0
xca.x1.x_u1.x_u6.x_u4.e1_int1                0
xca.x1.x_u1.x_u6.x_u8.4                      0
xca.x1.x_u1.x_u6.x_u8.e1_int1                0
xca.x1.x_u1.n00316                           0
xca.x1.x_u1.x_u6.n772684                   4.3
xca.x1.x_u1.x_u6.x_u5.e2_int1              4.3
xca.x1.x_u1.x_u6.x_u7.vmid                1.65
xca.x1.x_u1.x_u6.x_u7.evmid_int1            1.65
xca.x1.x_u1.x_u6.x_u7.eout_int1            1.65
xca.x1.x_u1.x_u3.x_u1.evdd_new_int1               0
xca.x1.x_u1.x_u3.x_u1.evss_new_int1            1.65
xca.x1.x_u1.x_u2.n18940                    3.3
xca.x1.x_u1.x_u2.x_u5.eout_int1             3.3
xca.x1.x_u1.x_u2.n18928                    5.5
xca.x1.x_u1.x_u2.n18958                    3.3
xca.x1.x_u1.x_u2.n19230                   1.65
xca.x1.x_u1.x_u2.n19104                    3.3
xca.x1.x_u1.x_u2.x_u15.eout_int1             3.3
xca.x1.x_u1.x_u2.n19172                      1
xca.x1.x_u1.x_u2.x_u13.eout_int1             3.3
xca.x1.x_u1.x_u2.x_u17.vmid               1.65
xca.x1.x_u1.x_u2.x_u17.evmid_int1            1.65
xca.x1.x_u1.x_u2.x_u17.eout_int1               0
xca.x1.x_u1.x_u2.n19100                    3.3
xca.x1.x_u1.x_u2.x_u16.4                   3.3
xca.x1.x_u1.x_u2.x_u16.e1_int1             3.3
xca.x1.x_u1.x_u1.x_u1.evdd_new_int1             3.3
xca.x1.x_u1.x_u1.x_u1.evss_new_int1               0
nrefb                                      0.8
nsumb                                      0.5
xcb.x1.x_u1.x_u7.vmid                     1.65
xcb.x1.x_u1.x_u7.evmid_int1               1.65
xcb.x1.x_u1.v+_buff                        3.3
xcb.x1.x_u1.v-_buff                          0
xcb.x1.x_u1.x_u7.vh                     0.0035
xcb.x1.x_u1.x_u7.evh_int1               0.0035
xcb.x1.x_u1.n00366                       0.007
xcb.x1.x_u1.x_u7.innnew                 0.8035
xcb.x1.x_u1.x_u7.einnnew_int1           0.8035
xcb.x1.x_u1.n00308                           0
xcb.x1.x_u1.in-_buff                       0.8
xcb.x1.x_u1.x_u7.out                         0
xcb.x1.x_u1.x_u7.eout_int1                   0
xcb.x1.x_u1.in+_buff                       0.5
xcb.x1.x_u1.x_u4.x_u18.4                     0
xcb.x1.x_u1.x_u4.x_u18.e1_int1               0
xcb.x1.x_u1.x_u4.n24659                      0
xcb.x1.x_u1.x_u4.n24743                      0
xcb.x1.x_u1.x_u4.n24733                      0
xcb.x1.x_u1.x_u4.x_u2.eout_int1               0
xcb.x1.x_u1.x_u4.n24835                      6
xcb.x1.x_u1.x_u4.n25117                   -0.3
xcb.x1.x_u1.x_u4.x_u19.4                     0
xcb.x1.x_u1.x_u4.x_u19.e1_int1               0
xcb.x1.x_u1.x_u4.n25095                      0
xcb.x1.x_u1.x_u4.n25203                      0
xcb.x1.x_u1.x_u4.n24963                      0
xcb.x1.x_u1.x_u4.n25311                   -0.3
xcb.x1.x_u1.x_u4.x_u1.eout_int1               0
xcb.x1.x_u1.x_u4.n24639                      6
xcb.x1.x_u1.n00323                           0
xcb.x1.x_u1.x_u4.x_u20.eout_int1               0
xcb.x1.x_u1.x_u4.n25027                      1
xcb.x1.x_u1.x_u4.x_u3.eout_int1               0
xcb.x1.x_u1.x_u4.x_u17.eout_int1               0
xcb.x1.x_u1.x_u6.control                     0
xcb.x1.x_u1.x_u6.n773134              0.999717
xcb.x1.x_u1.x_u6.n773128                     1
outb                                 0.0179282
xcb.x1.x_u1.x_u6.n772690                   4.3
xcb.x1.x_u1.x_u6.mid                      1.65
xcb.x1.x_u1.x_u6.1v                          1
xcb.x1.x_u1.x_u6.x_u6.e2_int1                1
xcb.x1.x_u1.x_u6.n773122                     0
xcb.x1.x_u1.x_u6.n772926                     1
xcb.x1.x_u1.x_u6.x_u3.3                      0
xcb.x1.x_u1.x_u6.x_u3.e1_int1                0
xcb.x1.x_u1.n00312                           0
xcb.x1.x_u1.x_u6.n772534                   4.3
xcb.x1.x_u1.x_u6.n772678                     0
xcb.x1.x_u1.x_u6.x_u4.3                      0
xcb.x1.x_u1.x_u6.x_u4.e1_int1                0
xcb.x1.x_u1.x_u6.x_u8.4                      0
xcb.x1.x_u1.x_u6.x_u8.e1_int1                0
xcb.x1.x_u1.n00316                           0
xcb.x1.x_u1.x_u6.n772684                   4.3
xcb.x1.x_u1.x_u6.x_u5.e2_int1              4.3
xcb.x1.x_u1.x_u6.x_u7.vmid                1.65
xcb.x1.x_u1.x_u6.x_u7.evmid_int1            1.65
xcb.x1.x_u1.x_u6.x_u7.eout_int1            1.65
xcb.x1.x_u1.x_u3.x_u1.evdd_new_int1             0.5
xcb.x1.x_u1.x_u3.x_u1.evss_new_int1             0.8
xcb.x1.x_u1.x_u2.n18940                    3.3
xcb.x1.x_u1.x_u2.x_u5.eout_int1             3.3
xcb.x1.x_u1.x_u2.n18928                    5.5
xcb.x1.x_u1.x_u2.n18958                    3.3
xcb.x1.x_u1.x_u2.n19230                   1.65
xcb.x1.x_u1.x_u2.n19104                    3.3
xcb.x1.x_u1.x_u2.x_u15.eout_int1             3.3
xcb.x1.x_u1.x_u2.n19172                      1
xcb.x1.x_u1.x_u2.x_u13.eout_int1             3.3
xcb.x1.x_u1.x_u2.x_u17.vmid               1.65
xcb.x1.x_u1.x_u2.x_u17.evmid_int1            1.65
xcb.x1.x_u1.x_u2.x_u17.eout_int1               0
xcb.x1.x_u1.x_u2.n19100                    3.3
xcb.x1.x_u1.x_u2.x_u16.4                   3.3
xcb.x1.x_u1.x_u2.x_u16.e1_int1             3.3
xcb.x1.x_u1.x_u1.x_u1.evdd_new_int1             3.3
xcb.x1.x_u1.x_u1.x_u1.evss_new_int1               0
nrefc                                     1.65
nsumc                                        1
xcc.x1.x_u1.x_u7.vmid                     1.65
xcc.x1.x_u1.x_u7.evmid_int1               1.65
xcc.x1.x_u1.v+_buff                        3.3
xcc.x1.x_u1.v-_buff                          0
xcc.x1.x_u1.x_u7.vh                     0.0035
xcc.x1.x_u1.x_u7.evh_int1               0.0035
xcc.x1.x_u1.n00366                       0.007
xcc.x1.x_u1.x_u7.innnew                 1.6535
xcc.x1.x_u1.x_u7.einnnew_int1           1.6535
xcc.x1.x_u1.n00308                           0
xcc.x1.x_u1.in-_buff                      1.65
xcc.x1.x_u1.x_u7.out                         0
xcc.x1.x_u1.x_u7.eout_int1                   0
xcc.x1.x_u1.in+_buff                         1
xcc.x1.x_u1.x_u4.x_u18.4                     0
xcc.x1.x_u1.x_u4.x_u18.e1_int1               0
xcc.x1.x_u1.x_u4.n24659                      0
xcc.x1.x_u1.x_u4.n24743                      0
xcc.x1.x_u1.x_u4.n24733                      0
xcc.x1.x_u1.x_u4.x_u2.eout_int1               0
xcc.x1.x_u1.x_u4.n24835                      6
xcc.x1.x_u1.x_u4.n25117                   -0.3
xcc.x1.x_u1.x_u4.x_u19.4                     0
xcc.x1.x_u1.x_u4.x_u19.e1_int1               0
xcc.x1.x_u1.x_u4.n25095                      0
xcc.x1.x_u1.x_u4.n25203                      0
xcc.x1.x_u1.x_u4.n24963                      0
xcc.x1.x_u1.x_u4.n25311                   -0.3
xcc.x1.x_u1.x_u4.x_u1.eout_int1               0
xcc.x1.x_u1.x_u4.n24639                      6
xcc.x1.x_u1.n00323                           0
xcc.x1.x_u1.x_u4.x_u20.eout_int1               0
xcc.x1.x_u1.x_u4.n25027                      1
xcc.x1.x_u1.x_u4.x_u3.eout_int1               0
xcc.x1.x_u1.x_u4.x_u17.eout_int1               0
xcc.x1.x_u1.x_u6.control                     0
xcc.x1.x_u1.x_u6.n773134              0.999772
xcc.x1.x_u1.x_u6.n773128                     1
outc                                 0.0769395
xcc.x1.x_u1.x_u6.n772690                   4.3
xcc.x1.x_u1.x_u6.mid                      1.65
xcc.x1.x_u1.x_u6.1v                          1
xcc.x1.x_u1.x_u6.x_u6.e2_int1                1
xcc.x1.x_u1.x_u6.n773122                     0
xcc.x1.x_u1.x_u6.n772926                     1
xcc.x1.x_u1.x_u6.x_u3.3                      0
xcc.x1.x_u1.x_u6.x_u3.e1_int1                0
xcc.x1.x_u1.n00312                           0
xcc.x1.x_u1.x_u6.n772534                   4.3
xcc.x1.x_u1.x_u6.n772678                     0
xcc.x1.x_u1.x_u6.x_u4.3                      0
xcc.x1.x_u1.x_u6.x_u4.e1_int1                0
xcc.x1.x_u1.x_u6.x_u8.4                      0
xcc.x1.x_u1.x_u6.x_u8.e1_int1                0
xcc.x1.x_u1.n00316                           0
xcc.x1.x_u1.x_u6.n772684                   4.3
xcc.x1.x_u1.x_u6.x_u5.e2_int1              4.3
xcc.x1.x_u1.x_u6.x_u7.vmid                1.65
xcc.x1.x_u1.x_u6.x_u7.evmid_int1            1.65
xcc.x1.x_u1.x_u6.x_u7.eout_int1            1.65
xcc.x1.x_u1.x_u3.x_u1.evdd_new_int1               1
xcc.x1.x_u1.x_u3.x_u1.evss_new_int1            1.65
xcc.x1.x_u1.x_u2.n18940                    3.3
xcc.x1.x_u1.x_u2.x_u5.eout_int1             3.3
xcc.x1.x_u1.x_u2.n18928                    5.5
xcc.x1.x_u1.x_u2.n18958                    3.3
xcc.x1.x_u1.x_u2.n19230                   1.65
xcc.x1.x_u1.x_u2.n19104                    3.3
xcc.x1.x_u1.x_u2.x_u15.eout_int1             3.3
xcc.x1.x_u1.x_u2.n19172                      1
xcc.x1.x_u1.x_u2.x_u13.eout_int1             3.3
xcc.x1.x_u1.x_u2.x_u17.vmid               1.65
xcc.x1.x_u1.x_u2.x_u17.evmid_int1            1.65
xcc.x1.x_u1.x_u2.x_u17.eout_int1               0
xcc.x1.x_u1.x_u2.n19100                    3.3
xcc.x1.x_u1.x_u2.x_u16.4                   3.3
xcc.x1.x_u1.x_u2.x_u16.e1_int1             3.3
xcc.x1.x_u1.x_u1.x_u1.evdd_new_int1             3.3
xcc.x1.x_u1.x_u1.x_u1.evss_new_int1               0
nrefd                                        1
nsumd                                     1.65
xcd.x1.x_u1.x_u7.vmid                     1.65
xcd.x1.x_u1.x_u7.evmid_int1               1.65
xcd.x1.x_u1.v+_buff                        3.3
xcd.x1.x_u1.v-_buff                          0
xcd.x1.x_u1.x_u7.vh                     0.0035
xcd.x1.x_u1.x_u7.evh_int1               0.0035
xcd.x1.x_u1.n00366                       0.007
xcd.x1.x_u1.x_u7.innnew                 0.9965
xcd.x1.x_u1.x_u7.einnnew_int1           0.9965
xcd.x1.x_u1.n00308                     3.23529
xcd.x1.x_u1.in-_buff                         1
xcd.x1.x_u1.x_u7.out                       3.3
xcd.x1.x_u1.x_u7.eout_int1                 3.3
xcd.x1.x_u1.in+_buff                      1.65
xcd.x1.x_u1.x_u4.x_u18.4                     0
xcd.x1.x_u1.x_u4.x_u18.e1_int1               0
xcd.x1.x_u1.x_u4.n24659                      0
xcd.x1.x_u1.x_u4.n24743                      0
xcd.x1.x_u1.x_u4.n24733                      0
xcd.x1.x_u1.x_u4.x_u2.eout_int1               0
xcd.x1.x_u1.x_u4.n24835                      6
xcd.x1.x_u1.x_u4.n25117                   -0.3
xcd.x1.x_u1.x_u4.x_u19.4                     0
xcd.x1.x_u1.x_u4.x_u19.e1_int1               0
xcd.x1.x_u1.x_u4.n25095                      0
xcd.x1.x_u1.x_u4.n25203                      0
xcd.x1.x_u1.x_u4.n24963                      0
xcd.x1.x_u1.x_u4.n25311                   -0.3
xcd.x1.x_u1.x_u4.x_u1.eout_int1               0
xcd.x1.x_u1.x_u4.n24639                      6
xcd.x1.x_u1.n00323                           0
xcd.x1.x_u1.x_u4.x_u20.eout_int1               0
xcd.x1.x_u1.x_u4.n25027                      1
xcd.x1.x_u1.x_u4.x_u3.eout_int1               0
xcd.x1.x_u1.x_u4.x_u17.eout_int1               0
xcd.x1.x_u1.x_u6.control                     0
xcd.x1.x_u1.x_u6.n773134           3.26903e-13
xcd.x1.x_u1.x_u6.n773128                     0
outd                                   3.26803
xcd.x1.x_u1.x_u6.n772690            0.00290249
xcd.x1.x_u1.x_u6.mid                      1.65
xcd.x1.x_u1.x_u6.1v                          1
xcd.x1.x_u1.x_u6.x_u6.e2_int1                0
xcd.x1.x_u1.x_u6.n773122                     1
xcd.x1.x_u1.x_u6.n772926                     1
xcd.x1.x_u1.x_u6.x_u3.3                    4.3
xcd.x1.x_u1.x_u6.x_u3.e1_int1              4.3
xcd.x1.x_u1.n00312                     3.23529
xcd.x1.x_u1.x_u6.n772534                   4.3
xcd.x1.x_u1.x_u6.n772678                   4.3
xcd.x1.x_u1.x_u6.x_u4.3                      1
xcd.x1.x_u1.x_u6.x_u4.e1_int1                1
xcd.x1.x_u1.x_u6.x_u8.4                      0
xcd.x1.x_u1.x_u6.x_u8.e1_int1                0
xcd.x1.x_u1.n00316                           0
xcd.x1.x_u1.x_u6.n772684                     0
xcd.x1.x_u1.x_u6.x_u5.e2_int1                0
xcd.x1.x_u1.x_u6.x_u7.vmid                1.65
xcd.x1.x_u1.x_u6.x_u7.evmid_int1            1.65
xcd.x1.x_u1.x_u6.x_u7.eout_int1            1.65
xcd.x1.x_u1.x_u3.x_u1.evdd_new_int1            1.65
xcd.x1.x_u1.x_u3.x_u1.evss_new_int1               1
xcd.x1.x_u1.x_u2.n18940                    3.3
xcd.x1.x_u1.x_u2.x_u5.eout_int1             3.3
xcd.x1.x_u1.x_u2.n18928                    5.5
xcd.x1.x_u1.x_u2.n18958                    3.3
xcd.x1.x_u1.x_u2.n19230                   1.65
xcd.x1.x_u1.x_u2.n19104                    3.3
xcd.x1.x_u1.x_u2.x_u15.eout_int1             3.3
xcd.x1.x_u1.x_u2.n19172                      1
xcd.x1.x_u1.x_u2.x_u13.eout_int1             3.3
xcd.x1.x_u1.x_u2.x_u17.vmid               1.65
xcd.x1.x_u1.x_u2.x_u17.evmid_int1            1.65
xcd.x1.x_u1.x_u2.x_u17.eout_int1               0
xcd.x1.x_u1.x_u2.n19100                    3.3
xcd.x1.x_u1.x_u2.x_u16.4                   3.3
xcd.x1.x_u1.x_u2.x_u16.e1_int1             3.3
xcd.x1.x_u1.x_u1.x_u1.evdd_new_int1             3.3
xcd.x1.x_u1.x_u1.x_u1.evss_new_int1               0
nrefe                                     1.65
nsume                                      1.6
xce.x1.x_u1.x_u7.vmid                     1.65
xce.x1.x_u1.x_u7.evmid_int1               1.65
xce.x1.x_u1.v+_buff                        3.3
xce.x1.x_u1.v-_buff                          0
xce.x1.x_u1.x_u7.vh                     0.0035
xce.x1.x_u1.x_u7.evh_int1               0.0035
xce.x1.x_u1.n00366                       0.007
xce.x1.x_u1.x_u7.innnew                 1.6535
xce.x1.x_u1.x_u7.einnnew_int1           1.6535
xce.x1.x_u1.n00308                           0
xce.x1.x_u1.in-_buff                      1.65
xce.x1.x_u1.x_u7.out                         0
xce.x1.x_u1.x_u7.eout_int1                   0
xce.x1.x_u1.in+_buff                       1.6
xce.x1.x_u1.x_u4.x_u18.4                     0
xce.x1.x_u1.x_u4.x_u18.e1_int1               0
xce.x1.x_u1.x_u4.n24659                      0
xce.x1.x_u1.x_u4.n24743                      0
xce.x1.x_u1.x_u4.n24733                      0
xce.x1.x_u1.x_u4.x_u2.eout_int1               0
xce.x1.x_u1.x_u4.n24835                      6
xce.x1.x_u1.x_u4.n25117                   -0.3
xce.x1.x_u1.x_u4.x_u19.4                     0
xce.x1.x_u1.x_u4.x_u19.e1_int1               0
xce.x1.x_u1.x_u4.n25095                      0
xce.x1.x_u1.x_u4.n25203                      0
xce.x1.x_u1.x_u4.n24963                      0
xce.x1.x_u1.x_u4.n25311                   -0.3
xce.x1.x_u1.x_u4.x_u1.eout_int1               0
xce.x1.x_u1.x_u4.n24639                      6
xce.x1.x_u1.n00323                           0
xce.x1.x_u1.x_u4.x_u20.eout_int1               0
xce.x1.x_u1.x_u4.n25027                      1
xce.x1.x_u1.x_u4.x_u3.eout_int1               0
xce.x1.x_u1.x_u4.x_u17.eout_int1               0
xce.x1.x_u1.x_u6.control                     0
xce.x1.x_u1.x_u6.n773134              0.999717
xce.x1.x_u1.x_u6.n773128                     1
oute                                 0.0179282
xce.x1.x_u1.x_u6.n772690                   4.3
xce.x1.x_u1.x_u6.mid                      1.65
xce.x1.x_u1.x_u6.1v                          1
xce.x1.x_u1.x_u6.x_u6.e2_int1                1
xce.x1.x_u1.x_u6.n773122                     0
xce.x1.x_u1.x_u6.n772926                     1
xce.x1.x_u1.x_u6.x_u3.3                      0
xce.x1.x_u1.x_u6.x_u3.e1_int1                0
xce.x1.x_u1.n00312                           0
xce.x1.x_u1.x_u6.n772534                   4.3
xce.x1.x_u1.x_u6.n772678                     0
xce.x1.x_u1.x_u6.x_u4.3                      0
xce.x1.x_u1.x_u6.x_u4.e1_int1                0
xce.x1.x_u1.x_u6.x_u8.4                      0
xce.x1.x_u1.x_u6.x_u8.e1_int1                0
xce.x1.x_u1.n00316                           0
xce.x1.x_u1.x_u6.n772684                   4.3
xce.x1.x_u1.x_u6.x_u5.e2_int1              4.3
xce.x1.x_u1.x_u6.x_u7.vmid                1.65
xce.x1.x_u1.x_u6.x_u7.evmid_int1            1.65
xce.x1.x_u1.x_u6.x_u7.eout_int1            1.65
xce.x1.x_u1.x_u3.x_u1.evdd_new_int1             1.6
xce.x1.x_u1.x_u3.x_u1.evss_new_int1            1.65
xce.x1.x_u1.x_u2.n18940                    3.3
xce.x1.x_u1.x_u2.x_u5.eout_int1             3.3
xce.x1.x_u1.x_u2.n18928                    5.5
xce.x1.x_u1.x_u2.n18958                    3.3
xce.x1.x_u1.x_u2.n19230                   1.65
xce.x1.x_u1.x_u2.n19104                    3.3
xce.x1.x_u1.x_u2.x_u15.eout_int1             3.3
xce.x1.x_u1.x_u2.n19172                      1
xce.x1.x_u1.x_u2.x_u13.eout_int1             3.3
xce.x1.x_u1.x_u2.x_u17.vmid               1.65
xce.x1.x_u1.x_u2.x_u17.evmid_int1            1.65
xce.x1.x_u1.x_u2.x_u17.eout_int1               0
xce.x1.x_u1.x_u2.n19100                    3.3
xce.x1.x_u1.x_u2.x_u16.4                   3.3
xce.x1.x_u1.x_u2.x_u16.e1_int1             3.3
xce.x1.x_u1.x_u1.x_u1.evdd_new_int1             3.3
xce.x1.x_u1.x_u1.x_u1.evss_new_int1               0
nreff                                     1.65
nsumf                                     1.55
xcf.x1.x_u1.x_u7.vmid                     1.65
xcf.x1.x_u1.x_u7.evmid_int1               1.65
xcf.x1.x_u1.v+_buff                        3.3
xcf.x1.x_u1.v-_buff                          0
xcf.x1.x_u1.x_u7.vh                     0.0035
xcf.x1.x_u1.x_u7.evh_int1               0.0035
xcf.x1.x_u1.n00366                       0.007
xcf.x1.x_u1.x_u7.innnew                 1.6535
xcf.x1.x_u1.x_u7.einnnew_int1           1.6535
xcf.x1.x_u1.n00308                           0
xcf.x1.x_u1.in-_buff                      1.65
xcf.x1.x_u1.x_u7.out                         0
xcf.x1.x_u1.x_u7.eout_int1                   0
xcf.x1.x_u1.in+_buff                      1.55
xcf.x1.x_u1.x_u4.x_u18.4                     0
xcf.x1.x_u1.x_u4.x_u18.e1_int1               0
xcf.x1.x_u1.x_u4.n24659                      0
xcf.x1.x_u1.x_u4.n24743                      0
xcf.x1.x_u1.x_u4.n24733                      0
xcf.x1.x_u1.x_u4.x_u2.eout_int1               0
xcf.x1.x_u1.x_u4.n24835                      6
xcf.x1.x_u1.x_u4.n25117                   -0.3
xcf.x1.x_u1.x_u4.x_u19.4                     0
xcf.x1.x_u1.x_u4.x_u19.e1_int1               0
xcf.x1.x_u1.x_u4.n25095                      0
xcf.x1.x_u1.x_u4.n25203                      0
xcf.x1.x_u1.x_u4.n24963                      0
xcf.x1.x_u1.x_u4.n25311                   -0.3
xcf.x1.x_u1.x_u4.x_u1.eout_int1               0
xcf.x1.x_u1.x_u4.n24639                      6
xcf.x1.x_u1.n00323                           0
xcf.x1.x_u1.x_u4.x_u20.eout_int1               0
xcf.x1.x_u1.x_u4.n25027                      1
xcf.x1.x_u1.x_u4.x_u3.eout_int1               0
xcf.x1.x_u1.x_u4.x_u17.eout_int1               0
xcf.x1.x_u1.x_u6.control                     0
xcf.x1.x_u1.x_u6.n773134              0.999717
xcf.x1.x_u1.x_u6.n773128                     1
outf                                 0.0179282
xcf.x1.x_u1.x_u6.n772690                   4.3
xcf.x1.x_u1.x_u6.mid                      1.65
xcf.x1.x_u1.x_u6.1v                          1
xcf.x1.x_u1.x_u6.x_u6.e2_int1                1
xcf.x1.x_u1.x_u6.n773122                     0
xcf.x1.x_u1.x_u6.n772926                     1
xcf.x1.x_u1.x_u6.x_u3.3                      0
xcf.x1.x_u1.x_u6.x_u3.e1_int1                0
xcf.x1.x_u1.n00312                           0
xcf.x1.x_u1.x_u6.n772534                   4.3
xcf.x1.x_u1.x_u6.n772678                     0
xcf.x1.x_u1.x_u6.x_u4.3                      0
xcf.x1.x_u1.x_u6.x_u4.e1_int1                0
xcf.x1.x_u1.x_u6.x_u8.4                      0
xcf.x1.x_u1.x_u6.x_u8.e1_int1                0
xcf.x1.x_u1.n00316                           0
xcf.x1.x_u1.x_u6.n772684                   4.3
xcf.x1.x_u1.x_u6.x_u5.e2_int1              4.3
xcf.x1.x_u1.x_u6.x_u7.vmid                1.65
xcf.x1.x_u1.x_u6.x_u7.evmid_int1            1.65
xcf.x1.x_u1.x_u6.x_u7.eout_int1            1.65
xcf.x1.x_u1.x_u3.x_u1.evdd_new_int1            1.55
xcf.x1.x_u1.x_u3.x_u1.evss_new_int1            1.65
xcf.x1.x_u1.x_u2.n18940                    3.3
xcf.x1.x_u1.x_u2.x_u5.eout_int1             3.3
xcf.x1.x_u1.x_u2.n18928                    5.5
xcf.x1.x_u1.x_u2.n18958                    3.3
xcf.x1.x_u1.x_u2.n19230                   1.65
xcf.x1.x_u1.x_u2.n19104                    3.3
xcf.x1.x_u1.x_u2.x_u15.eout_int1             3.3
xcf.x1.x_u1.x_u2.n19172                      1
xcf.x1.x_u1.x_u2.x_u13.eout_int1             3.3
xcf.x1.x_u1.x_u2.x_u17.vmid               1.65
xcf.x1.x_u1.x_u2.x_u17.evmid_int1            1.65
xcf.x1.x_u1.x_u2.x_u17.eout_int1               0
xcf.x1.x_u1.x_u2.n19100                    3.3
xcf.x1.x_u1.x_u2.x_u16.4                   3.3
xcf.x1.x_u1.x_u2.x_u16.e1_int1             3.3
xcf.x1.x_u1.x_u1.x_u1.evdd_new_int1             3.3
xcf.x1.x_u1.x_u1.x_u1.evss_new_int1               0
b.xcf.x1.x_u1.x_u1.x_u1.bevss_new#branch               0
b.xcf.x1.x_u1.x_u1.x_u1.bevdd_new#branch               0
b.xcf.x1.x_u1.x_u2.x_u16.be1#branch               0
b.xcf.x1.x_u1.x_u2.x_u17.beout#branch               0
b.xcf.x1.x_u1.x_u2.x_u17.bevmid#branch               0
b.xcf.x1.x_u1.x_u2.x_u13.beout#branch               0
b.xcf.x1.x_u1.x_u2.x_u15.beout#branch               0
b.xcf.x1.x_u1.x_u2.x_u5.beout#branch               0
b.xcf.x1.x_u1.x_u3.x_u1.bevss_new#branch               0
b.xcf.x1.x_u1.x_u3.x_u1.bevdd_new#branch               0
b.xcf.x1.x_u1.x_u6.x_u7.beout#branch               0
b.xcf.x1.x_u1.x_u6.x_u7.bevmid#branch               0
b.xcf.x1.x_u1.x_u6.x_u5.be2#branch               0
b.xcf.x1.x_u1.x_u6.x_u8.be1#branch               0
b.xcf.x1.x_u1.x_u6.x_u4.be1#branch               0
b.xcf.x1.x_u1.x_u6.x_u3.be1#branch               0
b.xcf.x1.x_u1.x_u6.x_u6.be2#branch               0
b.xcf.x1.x_u1.x_u4.x_u17.beout#branch               0
b.xcf.x1.x_u1.x_u4.x_u3.beout#branch               0
b.xcf.x1.x_u1.x_u4.x_u20.beout#branch               0
b.xcf.x1.x_u1.x_u4.x_u1.beout#branch               0
b.xcf.x1.x_u1.x_u4.x_u19.be1#branch               0
b.xcf.x1.x_u1.x_u4.x_u2.beout#branch               0
b.xcf.x1.x_u1.x_u4.x_u18.be1#branch               0
b.xcf.x1.x_u1.x_u7.beout#branch               0
b.xcf.x1.x_u1.x_u7.beinnnew#branch               0
b.xcf.x1.x_u1.x_u7.bevh#branch               0
b.xcf.x1.x_u1.x_u7.bevmid#branch               0
b.xce.x1.x_u1.x_u1.x_u1.bevss_new#branch               0
b.xce.x1.x_u1.x_u1.x_u1.bevdd_new#branch               0
b.xce.x1.x_u1.x_u2.x_u16.be1#branch               0
b.xce.x1.x_u1.x_u2.x_u17.beout#branch               0
b.xce.x1.x_u1.x_u2.x_u17.bevmid#branch               0
b.xce.x1.x_u1.x_u2.x_u13.beout#branch               0
b.xce.x1.x_u1.x_u2.x_u15.beout#branch               0
b.xce.x1.x_u1.x_u2.x_u5.beout#branch               0
b.xce.x1.x_u1.x_u3.x_u1.bevss_new#branch               0
b.xce.x1.x_u1.x_u3.x_u1.bevdd_new#branch               0
b.xce.x1.x_u1.x_u6.x_u7.beout#branch               0
b.xce.x1.x_u1.x_u6.x_u7.bevmid#branch               0
b.xce.x1.x_u1.x_u6.x_u5.be2#branch               0
b.xce.x1.x_u1.x_u6.x_u8.be1#branch               0
b.xce.x1.x_u1.x_u6.x_u4.be1#branch               0
b.xce.x1.x_u1.x_u6.x_u3.be1#branch               0
b.xce.x1.x_u1.x_u6.x_u6.be2#branch               0
b.xce.x1.x_u1.x_u4.x_u17.beout#branch               0
b.xce.x1.x_u1.x_u4.x_u3.beout#branch               0
b.xce.x1.x_u1.x_u4.x_u20.beout#branch               0
b.xce.x1.x_u1.x_u4.x_u1.beout#branch               0
b.xce.x1.x_u1.x_u4.x_u19.be1#branch               0
b.xce.x1.x_u1.x_u4.x_u2.beout#branch               0
b.xce.x1.x_u1.x_u4.x_u18.be1#branch               0
b.xce.x1.x_u1.x_u7.beout#branch               0
b.xce.x1.x_u1.x_u7.beinnnew#branch               0
b.xce.x1.x_u1.x_u7.bevh#branch               0
b.xce.x1.x_u1.x_u7.bevmid#branch               0
b.xcd.x1.x_u1.x_u1.x_u1.bevss_new#branch               0
b.xcd.x1.x_u1.x_u1.x_u1.bevdd_new#branch               0
b.xcd.x1.x_u1.x_u2.x_u16.be1#branch               0
b.xcd.x1.x_u1.x_u2.x_u17.beout#branch               0
b.xcd.x1.x_u1.x_u2.x_u17.bevmid#branch               0
b.xcd.x1.x_u1.x_u2.x_u13.beout#branch               0
b.xcd.x1.x_u1.x_u2.x_u15.beout#branch               0
b.xcd.x1.x_u1.x_u2.x_u5.beout#branch               0
b.xcd.x1.x_u1.x_u3.x_u1.bevss_new#branch               0
b.xcd.x1.x_u1.x_u3.x_u1.bevdd_new#branch               0
b.xcd.x1.x_u1.x_u6.x_u7.beout#branch               0
b.xcd.x1.x_u1.x_u6.x_u7.bevmid#branch               0
b.xcd.x1.x_u1.x_u6.x_u5.be2#branch               0
b.xcd.x1.x_u1.x_u6.x_u8.be1#branch               0
b.xcd.x1.x_u1.x_u6.x_u4.be1#branch               0
b.xcd.x1.x_u1.x_u6.x_u3.be1#branch               0
b.xcd.x1.x_u1.x_u6.x_u6.be2#branch               0
b.xcd.x1.x_u1.x_u4.x_u17.beout#branch               0
b.xcd.x1.x_u1.x_u4.x_u3.beout#branch               0
b.xcd.x1.x_u1.x_u4.x_u20.beout#branch               0
b.xcd.x1.x_u1.x_u4.x_u1.beout#branch               0
b.xcd.x1.x_u1.x_u4.x_u19.be1#branch               0
b.xcd.x1.x_u1.x_u4.x_u2.beout#branch               0
b.xcd.x1.x_u1.x_u4.x_u18.be1#branch               0
b.xcd.x1.x_u1.x_u7.beout#branch               0
b.xcd.x1.x_u1.x_u7.beinnnew#branch               0
b.xcd.x1.x_u1.x_u7.bevh#branch               0
b.xcd.x1.x_u1.x_u7.bevmid#branch               0
b.xcc.x1.x_u1.x_u1.x_u1.bevss_new#branch               0
b.xcc.x1.x_u1.x_u1.x_u1.bevdd_new#branch               0
b.xcc.x1.x_u1.x_u2.x_u16.be1#branch               0
b.xcc.x1.x_u1.x_u2.x_u17.beout#branch               0
b.xcc.x1.x_u1.x_u2.x_u17.bevmid#branch               0
b.xcc.x1.x_u1.x_u2.x_u13.beout#branch               0
b.xcc.x1.x_u1.x_u2.x_u15.beout#branch               0
b.xcc.x1.x_u1.x_u2.x_u5.beout#branch               0
b.xcc.x1.x_u1.x_u3.x_u1.bevss_new#branch               0
b.xcc.x1.x_u1.x_u3.x_u1.bevdd_new#branch               0
b.xcc.x1.x_u1.x_u6.x_u7.beout#branch               0
b.xcc.x1.x_u1.x_u6.x_u7.bevmid#branch               0
b.xcc.x1.x_u1.x_u6.x_u5.be2#branch               0
b.xcc.x1.x_u1.x_u6.x_u8.be1#branch               0
b.xcc.x1.x_u1.x_u6.x_u4.be1#branch               0
b.xcc.x1.x_u1.x_u6.x_u3.be1#branch               0
b.xcc.x1.x_u1.x_u6.x_u6.be2#branch               0
b.xcc.x1.x_u1.x_u4.x_u17.beout#branch               0
b.xcc.x1.x_u1.x_u4.x_u3.beout#branch               0
b.xcc.x1.x_u1.x_u4.x_u20.beout#branch               0
b.xcc.x1.x_u1.x_u4.x_u1.beout#branch               0
b.xcc.x1.x_u1.x_u4.x_u19.be1#branch               0
b.xcc.x1.x_u1.x_u4.x_u2.beout#branch               0
b.xcc.x1.x_u1.x_u4.x_u18.be1#branch               0
b.xcc.x1.x_u1.x_u7.beout#branch               0
b.xcc.x1.x_u1.x_u7.beinnnew#branch               0
b.xcc.x1.x_u1.x_u7.bevh#branch               0
b.xcc.x1.x_u1.x_u7.bevmid#branch               0
b.xcb.x1.x_u1.x_u1.x_u1.bevss_new#branch               0
b.xcb.x1.x_u1.x_u1.x_u1.bevdd_new#branch               0
b.xcb.x1.x_u1.x_u2.x_u16.be1#branch               0
b.xcb.x1.x_u1.x_u2.x_u17.beout#branch               0
b.xcb.x1.x_u1.x_u2.x_u17.bevmid#branch               0
b.xcb.x1.x_u1.x_u2.x_u13.beout#branch               0
b.xcb.x1.x_u1.x_u2.x_u15.beout#branch               0
b.xcb.x1.x_u1.x_u2.x_u5.beout#branch               0
b.xcb.x1.x_u1.x_u3.x_u1.bevss_new#branch               0
b.xcb.x1.x_u1.x_u3.x_u1.bevdd_new#branch               0
b.xcb.x1.x_u1.x_u6.x_u7.beout#branch               0
b.xcb.x1.x_u1.x_u6.x_u7.bevmid#branch               0
b.xcb.x1.x_u1.x_u6.x_u5.be2#branch               0
b.xcb.x1.x_u1.x_u6.x_u8.be1#branch               0
b.xcb.x1.x_u1.x_u6.x_u4.be1#branch               0
b.xcb.x1.x_u1.x_u6.x_u3.be1#branch               0
b.xcb.x1.x_u1.x_u6.x_u6.be2#branch               0
b.xcb.x1.x_u1.x_u4.x_u17.beout#branch               0
b.xcb.x1.x_u1.x_u4.x_u3.beout#branch               0
b.xcb.x1.x_u1.x_u4.x_u20.beout#branch               0
b.xcb.x1.x_u1.x_u4.x_u1.beout#branch               0
b.xcb.x1.x_u1.x_u4.x_u19.be1#branch               0
b.xcb.x1.x_u1.x_u4.x_u2.beout#branch               0
b.xcb.x1.x_u1.x_u4.x_u18.be1#branch               0
b.xcb.x1.x_u1.x_u7.beout#branch               0
b.xcb.x1.x_u1.x_u7.beinnnew#branch               0
b.xcb.x1.x_u1.x_u7.bevh#branch               0
b.xcb.x1.x_u1.x_u7.bevmid#branch               0
b.xca.x1.x_u1.x_u1.x_u1.bevss_new#branch               0
b.xca.x1.x_u1.x_u1.x_u1.bevdd_new#branch               0
b.xca.x1.x_u1.x_u2.x_u16.be1#branch               0
b.xca.x1.x_u1.x_u2.x_u17.beout#branch               0
b.xca.x1.x_u1.x_u2.x_u17.bevmid#branch               0
b.xca.x1.x_u1.x_u2.x_u13.beout#branch               0
b.xca.x1.x_u1.x_u2.x_u15.beout#branch               0
b.xca.x1.x_u1.x_u2.x_u5.beout#branch               0
b.xca.x1.x_u1.x_u3.x_u1.bevss_new#branch               0
b.xca.x1.x_u1.x_u3.x_u1.bevdd_new#branch               0
b.xca.x1.x_u1.x_u6.x_u7.beout#branch               0
b.xca.x1.x_u1.x_u6.x_u7.bevmid#branch               0
b.xca.x1.x_u1.x_u6.x_u5.be2#branch               0
b.xca.x1.x_u1.x_u6.x_u8.be1#branch               0
b.xca.x1.x_u1.x_u6.x_u4.be1#branch               0
b.xca.x1.x_u1.x_u6.x_u3.be1#branch               0
b.xca.x1.x_u1.x_u6.x_u6.be2#branch               0
b.xca.x1.x_u1.x_u4.x_u17.beout#branch               0
b.xca.x1.x_u1.x_u4.x_u3.beout#branch               0
b.xca.x1.x_u1.x_u4.x_u20.beout#branch               0
b.xca.x1.x_u1.x_u4.x_u1.beout#branch               0
b.xca.x1.x_u1.x_u4.x_u19.be1#branch               0
b.xca.x1.x_u1.x_u4.x_u2.beout#branch               0
b.xca.x1.x_u1.x_u4.x_u18.be1#branch               0
b.xca.x1.x_u1.x_u7.beout#branch               0
b.xca.x1.x_u1.x_u7.beinnnew#branch               0
b.xca.x1.x_u1.x_u7.bevh#branch               0
b.xca.x1.x_u1.x_u7.bevmid#branch               0
e.xcf.x1.x_u1.x_u1.x_u1.evss_new#branch         3.90028
e.xcf.x1.x_u1.x_u1.x_u1.evdd_new#branch     1.00001e-13
e.xcf.x1.x_u1.x_u2.x_u16.e1#branch               0
e.xcf.x1.x_u1.x_u2.x_u17.eout#branch               0
e.xcf.x1.x_u1.x_u2.x_u17.evmid#branch               0
e.xcf.x1.x_u1.x_u2.x_u13.eout#branch            -3.3
e.xcf.x1.x_u1.x_u2.x_u15.eout#branch           -1.65
e.xcf.x1.x_u1.x_u2.x_u5.eout#branch               0
e.xcf.x1.x_u1.x_u3.x_u1.evss_new#branch           -1.65
e.xcf.x1.x_u1.x_u3.x_u1.evdd_new#branch           -1.55
e.xcf.x1.x_u1.x_u6.x_u7.eout#branch    -1.63207e-12
e.xcf.x1.x_u1.x_u6.x_u7.evmid#branch               0
e.xcf.x1.x_u1.x_u6.x_u5.e2#branch    -9.58345e-13
e.xcf.x1.x_u1.x_u6.x_u8.e1#branch               0
e.xcf.x1.x_u1.x_u6.x_u4.e1#branch               0
e.xcf.x1.x_u1.x_u6.x_u3.e1#branch               0
e.xcf.x1.x_u1.x_u6.x_u6.e2#branch    -0.000283181
e.xcf.x1.x_u1.x_u4.x_u17.eout#branch            -0.3
e.xcf.x1.x_u1.x_u4.x_u3.eout#branch            -0.3
e.xcf.x1.x_u1.x_u4.x_u20.eout#branch               0
e.xcf.x1.x_u1.x_u4.x_u1.eout#branch            1.55
e.xcf.x1.x_u1.x_u4.x_u19.e1#branch               0
e.xcf.x1.x_u1.x_u4.x_u2.eout#branch            1.65
e.xcf.x1.x_u1.x_u4.x_u18.e1#branch               0
e.xcf.x1.x_u1.x_u7.eout#branch               0
e.xcf.x1.x_u1.x_u7.einnnew#branch               0
e.xcf.x1.x_u1.x_u7.evh#branch                0
e.xcf.x1.x_u1.x_u7.evmid#branch               0
e.xce.x1.x_u1.x_u1.x_u1.evss_new#branch         3.90028
e.xce.x1.x_u1.x_u1.x_u1.evdd_new#branch     1.00001e-13
e.xce.x1.x_u1.x_u2.x_u16.e1#branch               0
e.xce.x1.x_u1.x_u2.x_u17.eout#branch               0
e.xce.x1.x_u1.x_u2.x_u17.evmid#branch               0
e.xce.x1.x_u1.x_u2.x_u13.eout#branch            -3.3
e.xce.x1.x_u1.x_u2.x_u15.eout#branch           -1.65
e.xce.x1.x_u1.x_u2.x_u5.eout#branch               0
e.xce.x1.x_u1.x_u3.x_u1.evss_new#branch           -1.65
e.xce.x1.x_u1.x_u3.x_u1.evdd_new#branch            -1.6
e.xce.x1.x_u1.x_u6.x_u7.eout#branch    -1.63207e-12
e.xce.x1.x_u1.x_u6.x_u7.evmid#branch               0
e.xce.x1.x_u1.x_u6.x_u5.e2#branch    -9.58345e-13
e.xce.x1.x_u1.x_u6.x_u8.e1#branch               0
e.xce.x1.x_u1.x_u6.x_u4.e1#branch               0
e.xce.x1.x_u1.x_u6.x_u3.e1#branch               0
e.xce.x1.x_u1.x_u6.x_u6.e2#branch    -0.000283181
e.xce.x1.x_u1.x_u4.x_u17.eout#branch            -0.3
e.xce.x1.x_u1.x_u4.x_u3.eout#branch            -0.3
e.xce.x1.x_u1.x_u4.x_u20.eout#branch               0
e.xce.x1.x_u1.x_u4.x_u1.eout#branch             1.6
e.xce.x1.x_u1.x_u4.x_u19.e1#branch               0
e.xce.x1.x_u1.x_u4.x_u2.eout#branch            1.65
e.xce.x1.x_u1.x_u4.x_u18.e1#branch               0
e.xce.x1.x_u1.x_u7.eout#branch               0
e.xce.x1.x_u1.x_u7.einnnew#branch               0
e.xce.x1.x_u1.x_u7.evh#branch                0
e.xce.x1.x_u1.x_u7.evmid#branch               0
e.xcd.x1.x_u1.x_u1.x_u1.evss_new#branch             3.9
e.xcd.x1.x_u1.x_u1.x_u1.evdd_new#branch     -0.00590249
e.xcd.x1.x_u1.x_u2.x_u16.e1#branch               0
e.xcd.x1.x_u1.x_u2.x_u17.eout#branch               0
e.xcd.x1.x_u1.x_u2.x_u17.evmid#branch               0
e.xcd.x1.x_u1.x_u2.x_u13.eout#branch            -3.3
e.xcd.x1.x_u1.x_u2.x_u15.eout#branch           -1.65
e.xcd.x1.x_u1.x_u2.x_u5.eout#branch               0
e.xcd.x1.x_u1.x_u3.x_u1.evss_new#branch              -1
e.xcd.x1.x_u1.x_u3.x_u1.evdd_new#branch           -1.65
e.xcd.x1.x_u1.x_u6.x_u7.eout#branch     1.61803e-12
e.xcd.x1.x_u1.x_u6.x_u7.evmid#branch               0
e.xcd.x1.x_u1.x_u6.x_u5.e2#branch      0.00290249
e.xcd.x1.x_u1.x_u6.x_u8.e1#branch               0
e.xcd.x1.x_u1.x_u6.x_u4.e1#branch               0
e.xcd.x1.x_u1.x_u6.x_u3.e1#branch               0
e.xcd.x1.x_u1.x_u6.x_u6.e2#branch     3.26903e-13
e.xcd.x1.x_u1.x_u4.x_u17.eout#branch            -0.3
e.xcd.x1.x_u1.x_u4.x_u3.eout#branch            -0.3
e.xcd.x1.x_u1.x_u4.x_u20.eout#branch               0
e.xcd.x1.x_u1.x_u4.x_u1.eout#branch            1.65
e.xcd.x1.x_u1.x_u4.x_u19.e1#branch               0
e.xcd.x1.x_u1.x_u4.x_u2.eout#branch               1
e.xcd.x1.x_u1.x_u4.x_u18.e1#branch               0
e.xcd.x1.x_u1.x_u7.eout#branch      -0.0647059
e.xcd.x1.x_u1.x_u7.einnnew#branch               0
e.xcd.x1.x_u1.x_u7.evh#branch                0
e.xcd.x1.x_u1.x_u7.evmid#branch               0
e.xcc.x1.x_u1.x_u1.x_u1.evss_new#branch         3.90323
e.xcc.x1.x_u1.x_u1.x_u1.evdd_new#branch     1.00001e-13
e.xcc.x1.x_u1.x_u2.x_u16.e1#branch               0
e.xcc.x1.x_u1.x_u2.x_u17.eout#branch               0
e.xcc.x1.x_u1.x_u2.x_u17.evmid#branch               0
e.xcc.x1.x_u1.x_u2.x_u13.eout#branch            -3.3
e.xcc.x1.x_u1.x_u2.x_u15.eout#branch           -1.65
e.xcc.x1.x_u1.x_u2.x_u5.eout#branch               0
e.xcc.x1.x_u1.x_u3.x_u1.evss_new#branch           -1.65
e.xcc.x1.x_u1.x_u3.x_u1.evdd_new#branch              -1
e.xcc.x1.x_u1.x_u6.x_u7.eout#branch    -1.57306e-12
e.xcc.x1.x_u1.x_u6.x_u7.evmid#branch               0
e.xcc.x1.x_u1.x_u6.x_u5.e2#branch    -9.52127e-13
e.xcc.x1.x_u1.x_u6.x_u8.e1#branch               0
e.xcc.x1.x_u1.x_u6.x_u4.e1#branch               0
e.xcc.x1.x_u1.x_u6.x_u3.e1#branch               0
e.xcc.x1.x_u1.x_u6.x_u6.e2#branch    -0.000228206
e.xcc.x1.x_u1.x_u4.x_u17.eout#branch            -0.3
e.xcc.x1.x_u1.x_u4.x_u3.eout#branch            -0.3
e.xcc.x1.x_u1.x_u4.x_u20.eout#branch               0
e.xcc.x1.x_u1.x_u4.x_u1.eout#branch               1
e.xcc.x1.x_u1.x_u4.x_u19.e1#branch               0
e.xcc.x1.x_u1.x_u4.x_u2.eout#branch            1.65
e.xcc.x1.x_u1.x_u4.x_u18.e1#branch               0
e.xcc.x1.x_u1.x_u7.eout#branch               0
e.xcc.x1.x_u1.x_u7.einnnew#branch               0
e.xcc.x1.x_u1.x_u7.evh#branch                0
e.xcc.x1.x_u1.x_u7.evmid#branch               0
e.xcb.x1.x_u1.x_u1.x_u1.evss_new#branch         3.90028
e.xcb.x1.x_u1.x_u1.x_u1.evdd_new#branch     1.00001e-13
e.xcb.x1.x_u1.x_u2.x_u16.e1#branch               0
e.xcb.x1.x_u1.x_u2.x_u17.eout#branch               0
e.xcb.x1.x_u1.x_u2.x_u17.evmid#branch               0
e.xcb.x1.x_u1.x_u2.x_u13.eout#branch            -3.3
e.xcb.x1.x_u1.x_u2.x_u15.eout#branch           -1.65
e.xcb.x1.x_u1.x_u2.x_u5.eout#branch               0
e.xcb.x1.x_u1.x_u3.x_u1.evss_new#branch            -0.8
e.xcb.x1.x_u1.x_u3.x_u1.evdd_new#branch            -0.5
e.xcb.x1.x_u1.x_u6.x_u7.eout#branch    -1.63207e-12
e.xcb.x1.x_u1.x_u6.x_u7.evmid#branch               0
e.xcb.x1.x_u1.x_u6.x_u5.e2#branch    -9.58345e-13
e.xcb.x1.x_u1.x_u6.x_u8.e1#branch               0
e.xcb.x1.x_u1.x_u6.x_u4.e1#branch               0
e.xcb.x1.x_u1.x_u6.x_u3.e1#branch               0
e.xcb.x1.x_u1.x_u6.x_u6.e2#branch    -0.000283181
e.xcb.x1.x_u1.x_u4.x_u17.eout#branch            -0.3
e.xcb.x1.x_u1.x_u4.x_u3.eout#branch            -0.3
e.xcb.x1.x_u1.x_u4.x_u20.eout#branch               0
e.xcb.x1.x_u1.x_u4.x_u1.eout#branch             0.5
e.xcb.x1.x_u1.x_u4.x_u19.e1#branch               0
e.xcb.x1.x_u1.x_u4.x_u2.eout#branch             0.8
e.xcb.x1.x_u1.x_u4.x_u18.e1#branch               0
e.xcb.x1.x_u1.x_u7.eout#branch               0
e.xcb.x1.x_u1.x_u7.einnnew#branch               0
e.xcb.x1.x_u1.x_u7.evh#branch                0
e.xcb.x1.x_u1.x_u7.evmid#branch               0
e.xca.x1.x_u1.x_u1.x_u1.evss_new#branch         3.90028
e.xca.x1.x_u1.x_u1.x_u1.evdd_new#branch     1.00001e-13
e.xca.x1.x_u1.x_u2.x_u16.e1#branch               0
e.xca.x1.x_u1.x_u2.x_u17.eout#branch               0
e.xca.x1.x_u1.x_u2.x_u17.evmid#branch               0
e.xca.x1.x_u1.x_u2.x_u13.eout#branch            -3.3
e.xca.x1.x_u1.x_u2.x_u15.eout#branch           -1.65
e.xca.x1.x_u1.x_u2.x_u5.eout#branch               0
e.xca.x1.x_u1.x_u3.x_u1.evss_new#branch           -1.65
e.xca.x1.x_u1.x_u3.x_u1.evdd_new#branch               0
e.xca.x1.x_u1.x_u6.x_u7.eout#branch    -1.63207e-12
e.xca.x1.x_u1.x_u6.x_u7.evmid#branch               0
e.xca.x1.x_u1.x_u6.x_u5.e2#branch    -9.58345e-13
e.xca.x1.x_u1.x_u6.x_u8.e1#branch               0
e.xca.x1.x_u1.x_u6.x_u4.e1#branch               0
e.xca.x1.x_u1.x_u6.x_u3.e1#branch               0
e.xca.x1.x_u1.x_u6.x_u6.e2#branch    -0.000283181
e.xca.x1.x_u1.x_u4.x_u17.eout#branch            -0.3
e.xca.x1.x_u1.x_u4.x_u3.eout#branch            -0.3
e.xca.x1.x_u1.x_u4.x_u20.eout#branch               0
e.xca.x1.x_u1.x_u4.x_u1.eout#branch               0
e.xca.x1.x_u1.x_u4.x_u19.e1#branch               0
e.xca.x1.x_u1.x_u4.x_u2.eout#branch            1.65
e.xca.x1.x_u1.x_u4.x_u18.e1#branch               0
e.xca.x1.x_u1.x_u7.eout#branch               0
e.xca.x1.x_u1.x_u7.einnnew#branch               0
e.xca.x1.x_u1.x_u7.evh#branch                0
e.xca.x1.x_u1.x_u7.evmid#branch               0
v.xcf.x1.x_u1.v_v1#branch                    0
v.xcf.x1.x_u1.x_u2.v_v1#branch               0
v.xcf.x1.x_u1.x_u2.v_v5#branch               0
v.xcf.x1.x_u1.x_u2.v_v4#branch            1.65
v.xcf.x1.x_u1.x_u6.v_v1#branch               0
v.xcf.x1.x_u1.x_u6.v_v2#branch               0
v.xcf.x1.x_u1.x_u6.v_v3#branch               0
v.xcf.x1.x_u1.x_u4.v_v2#branch               0
v.xcf.x1.x_u1.x_u4.v_v5#branch               0
v.xcf.x1.x_u1.x_u4.v_v1#branch               0
v.xcf.x1.x_u1.x_u4.v_v4#branch             0.3
v.xcf.x1.x_u1.x_u4.v_v3#branch             0.3
vsumf#branch                            -2e-12
vreff#branch                            -2e-12
v.xce.x1.x_u1.v_v1#branch                    0
v.xce.x1.x_u1.x_u2.v_v1#branch               0
v.xce.x1.x_u1.x_u2.v_v5#branch               0
v.xce.x1.x_u1.x_u2.v_v4#branch            1.65
v.xce.x1.x_u1.x_u6.v_v1#branch               0
v.xce.x1.x_u1.x_u6.v_v2#branch               0
v.xce.x1.x_u1.x_u6.v_v3#branch               0
v.xce.x1.x_u1.x_u4.v_v2#branch               0
v.xce.x1.x_u1.x_u4.v_v5#branch               0
v.xce.x1.x_u1.x_u4.v_v1#branch               0
v.xce.x1.x_u1.x_u4.v_v4#branch             0.3
v.xce.x1.x_u1.x_u4.v_v3#branch             0.3
vsume#branch                            -2e-12
vrefe#branch                            -2e-12
v.xcd.x1.x_u1.v_v1#branch                    0
v.xcd.x1.x_u1.x_u2.v_v1#branch               0
v.xcd.x1.x_u1.x_u2.v_v5#branch               0
v.xcd.x1.x_u1.x_u2.v_v4#branch            1.65
v.xcd.x1.x_u1.x_u6.v_v1#branch               0
v.xcd.x1.x_u1.x_u6.v_v2#branch               0
v.xcd.x1.x_u1.x_u6.v_v3#branch               0
v.xcd.x1.x_u1.x_u4.v_v2#branch               0
v.xcd.x1.x_u1.x_u4.v_v5#branch               0
v.xcd.x1.x_u1.x_u4.v_v1#branch               0
v.xcd.x1.x_u1.x_u4.v_v4#branch             0.3
v.xcd.x1.x_u1.x_u4.v_v3#branch             0.3
vsumd#branch                            -2e-12
vrefd#branch                            -2e-12
v.xcc.x1.x_u1.v_v1#branch                    0
v.xcc.x1.x_u1.x_u2.v_v1#branch               0
v.xcc.x1.x_u1.x_u2.v_v5#branch               0
v.xcc.x1.x_u1.x_u2.v_v4#branch            1.65
v.xcc.x1.x_u1.x_u6.v_v1#branch               0
v.xcc.x1.x_u1.x_u6.v_v2#branch               0
v.xcc.x1.x_u1.x_u6.v_v3#branch               0
v.xcc.x1.x_u1.x_u4.v_v2#branch               0
v.xcc.x1.x_u1.x_u4.v_v5#branch               0
v.xcc.x1.x_u1.x_u4.v_v1#branch               0
v.xcc.x1.x_u1.x_u4.v_v4#branch             0.3
v.xcc.x1.x_u1.x_u4.v_v3#branch             0.3
vsumc#branch                            -2e-12
vrefc#branch                            -2e-12
v.xcb.x1.x_u1.v_v1#branch                    0
v.xcb.x1.x_u1.x_u2.v_v1#branch               0
v.xcb.x1.x_u1.x_u2.v_v5#branch               0
v.xcb.x1.x_u1.x_u2.v_v4#branch            1.65
v.xcb.x1.x_u1.x_u6.v_v1#branch               0
v.xcb.x1.x_u1.x_u6.v_v2#branch               0
v.xcb.x1.x_u1.x_u6.v_v3#branch               0
v.xcb.x1.x_u1.x_u4.v_v2#branch               0
v.xcb.x1.x_u1.x_u4.v_v5#branch               0
v.xcb.x1.x_u1.x_u4.v_v1#branch               0
v.xcb.x1.x_u1.x_u4.v_v4#branch             0.3
v.xcb.x1.x_u1.x_u4.v_v3#branch             0.3
vsumb#branch                            -2e-12
vrefb#branch                            -2e-12
v.xca.x1.x_u1.v_v1#branch                    0
v.xca.x1.x_u1.x_u2.v_v1#branch               0
v.xca.x1.x_u1.x_u2.v_v5#branch               0
v.xca.x1.x_u1.x_u2.v_v4#branch            1.65
v.xca.x1.x_u1.x_u6.v_v1#branch               0
v.xca.x1.x_u1.x_u6.v_v2#branch               0
v.xca.x1.x_u1.x_u6.v_v3#branch               0
v.xca.x1.x_u1.x_u4.v_v2#branch               0
v.xca.x1.x_u1.x_u4.v_v5#branch               0
v.xca.x1.x_u1.x_u4.v_v1#branch               0
v.xca.x1.x_u1.x_u4.v_v4#branch             0.3
v.xca.x1.x_u1.x_u4.v_v3#branch             0.3
vsuma#branch                            -2e-12
vrefa#branch                            -2e-12
vdd#branch                           -2.01e-06

 Reference value :  4.30150e-05
No. of Data Rows : 1136
tp_lh               =  2.988387e-06 targ=  1.299339e-05 trig=  1.000500e-05
  tPLH = 2.98839E-06 s   [datasheet 3 us typ]
ngspice-45.2 done
